geometry optimzed in LAMMPS
_audit_creation_date              2020-12-01 
_audit_creation_method            'lammps2cif' 
_symmetry_space_group_name_H-M    'P1' 
_symmetry_Int_Tables_number       1 
_symmetry_cell_setting            triclinic 
loop_ 
_symmetry_equiv_pos_as_xyz 
  x,y,z 
_cell_length_a                    32.5924558 
_cell_length_b                    32.267121525622024 
_cell_length_c                    65.87403013906102 
_cell_angle_alpha                 89.8195373580694 
_cell_angle_beta                  89.87436249096254 
_cell_angle_gamma                 90.04384022859497 
loop_ 
_atom_site_label 
_atom_site_type_symbol 
_atom_site_fract_x 
_atom_site_fract_y 
_atom_site_fract_z 
_atom_site_charge 
O1          O  0.25970487  0.91361593  0.53225234    -0.80300
O2          O  0.20374744  0.94066251  0.62059675    -0.65000
O3          O  0.21231337  0.89871533  0.56693118    -1.11600
C4          C  0.11687503  0.99450116  0.54671273     1.06500
O5          O  0.14475914  0.97542698  0.61815820    -0.78200
O6          O  0.11743766  0.92108953  0.58981723    -0.65800
Ni7        Ni  0.26261986  0.87914852  0.55624396     1.34900
C8          C  0.11387267  0.89996387  0.57373422     0.85300
O9          O  0.23446364  0.87130389  0.60532535    -0.78800
O10         O  0.26860838  0.84236838  0.57924191    -0.89100
C11         C  0.17457589  0.96125507  0.62834954     0.84800
O12         O  0.29843447  0.91848633  0.56842447    -0.67300
O13         O  0.10311867  0.98581422  0.56420535    -0.86600
C14         C  0.29444586  0.94364148  0.58301120     0.85700
C15         C  0.25629753  0.84242097  0.59772120     1.07200
H16         H  0.19925015  0.99094175  0.58141146     0.39000
O17         O  0.18229360  0.96638822  0.58080320    -1.09200
O18         O  0.13388265  0.90952191  0.55746517    -0.65900
Ni19       Ni  0.18422179  0.94316440  0.55410732     1.26300
O20         O  0.26119860  0.94797991  0.59298803    -0.66100
O21         O  0.15399155  0.98780151  0.54198600    -0.78400
C22         C  0.22924173  0.91946105  0.52046869     0.85100
O23         O  0.19265567  0.92113000  0.52736569    -0.65600
Ni24       Ni  0.12828441  0.97861640  0.59040802     1.27400
Ni25       Ni  0.20908678  0.91954792  0.59367781     1.26100
H26         H  0.19492049  0.87449207  0.56667724     0.39600
O27         O  0.74894756  0.66155400  0.53546774    -0.80300
O28         O  0.80760011  0.62396089  0.62094046    -0.65000
O29         O  0.79890942  0.67385203  0.56905453    -1.11600
C30         C  0.89532482  0.58329955  0.54487751     1.06500
O31         O  0.86816159  0.59257708  0.61757204    -0.78200
O32         O  0.89604562  0.65225868  0.58950967    -0.65800
Ni33       Ni  0.74904440  0.69572097  0.55939929     1.34900
C34         C  0.89801023  0.67434705  0.57336194     0.85300
O35         O  0.77594868  0.69579052  0.60820219    -0.78800
O36         O  0.74669021  0.73155731  0.58255228    -0.89100
C37         C  0.83648056  0.60189297  0.62793447     0.84800
O38         O  0.71235047  0.65808717  0.57254798    -0.67300
O39         O  0.90918646  0.58985074  0.56261585    -0.86600
C40         C  0.71682909  0.62889677  0.58533989     0.85700
C41         C  0.75685313  0.72737622  0.60118841     1.07200
H42         H  0.81460079  0.58033944  0.58061664     0.39000
O43         O  0.83064121  0.60554999  0.58050669    -1.09200
O44         O  0.87654302  0.66577691  0.55758136    -0.65900
Ni45       Ni  0.82684660  0.63179837  0.55447732     1.26300
O46         O  0.75137419  0.61995166  0.59310143    -0.66100
O47         O  0.85784535  0.58977071  0.54058659    -0.78400
C48         C  0.77812821  0.65579792  0.52288513     0.85100
O49         O  0.81552331  0.65674665  0.52857107    -0.65600
Ni50       Ni  0.88503678  0.59406158  0.58940519     1.27400
Ni51       Ni  0.80256293  0.64958026  0.59496657     1.26100
H52         H  0.81641109  0.69790810  0.56972639     0.39600
O53         O  0.31943367  0.41610495  0.62123756    -0.80300
O54         O  0.37333949  0.46786875  0.71166339    -0.65000
O55         O  0.32683579  0.45533791  0.65862768    -1.11600
C56         C  0.44895712  0.53062249  0.64109649     1.06500
O57         O  0.37827603  0.53501492  0.70554330    -0.78200
O58         O  0.37793107  0.57390454  0.66906432    -0.65800
Ni59       Ni  0.31492706  0.40045123  0.64950145     1.34900
C60         C  0.35030957  0.57036550  0.65561788     0.85300
O61         O  0.30688794  0.42905442  0.69814605    -0.78800
O62         O  0.30650160  0.37693804  0.67638408    -0.89100
C63         C  0.37299010  0.50511943  0.71797578     0.84800
O64         O  0.37153868  0.38691147  0.65084765    -0.67300
O65         O  0.45149037  0.53989892  0.65988045    -0.86600
C66         C  0.39152275  0.38456111  0.66735428     0.85700
C67         C  0.30071991  0.39120514  0.69416976     1.07200
H68         H  0.41771202  0.46795703  0.67152407     0.39000
O69         O  0.39406148  0.48596304  0.67162825    -1.09200
O70         O  0.34267355  0.53594711  0.64697272    -0.65900
Ni71       Ni  0.37181488  0.48371680  0.64519697     1.26300
O72         O  0.38289863  0.40730497  0.68277033    -0.66100
O73         O  0.41879533  0.51106264  0.63314569    -0.78400
C74         C  0.33051173  0.44757404  0.61087083     0.85100
O75         O  0.34871859  0.47863267  0.61856955    -0.65600
Ni76       Ni  0.41419845  0.53617592  0.68228339     1.27400
Ni77       Ni  0.35056140  0.45846659  0.68519542     1.26100
H78         H  0.30214007  0.47186281  0.65814261     0.39600
O79         O  0.70175545  0.14254826  0.62864800    -0.80300
O80         O  0.63222073  0.09252368  0.71630377    -0.65000
O81         O  0.68410529  0.10421122  0.66480066    -1.11600
C82         C  0.55802558  0.03979983  0.64417650     1.06500
O83         O  0.62384918  0.02616455  0.70950941    -0.78200
O84         O  0.62596517  0.98915562  0.67287873    -0.65800
Ni85       Ni  0.70187192  0.15803453  0.65668623     1.34900
C86         C  0.65442054  0.99288380  0.65981497     0.85300
O87         O  0.70239848  0.12737878  0.70476988    -0.78800
O88         O  0.70732500  0.18055464  0.68360532    -0.89100
C89         C  0.63182072  0.05494153  0.72213523     0.84800
O90         O  0.64608608  0.17487036  0.65605553    -0.67300
O91         O  0.55453442  0.02747968  0.66253592    -0.86600
C92         C  0.62357554  0.17785785  0.67179034     0.85700
C93         C  0.71142880  0.16485540  0.70115403     1.07200
H94         H  0.59096095  0.09728427  0.67607714     0.39000
O95         O  0.61359478  0.07798698  0.67616605    -1.09200
O96         O  0.66323002  0.02734323  0.65153258    -0.65900
Ni97       Ni  0.63776645  0.08103888  0.65023111     1.26300
O98         O  0.62933368  0.15502576  0.68759858    -0.66100
O99         O  0.58966093  0.05844454  0.63699655    -0.78400
C100        C  0.68817817  0.11322560  0.61775674     0.85100
O101        O  0.66302422  0.08612193  0.62420047    -0.65600
Ni102      Ni  0.59005024  0.02799762  0.68565228     1.27400
Ni103      Ni  0.65788501  0.10168964  0.69065708     1.26100
H104        H  0.70722952  0.08548537  0.66460524     0.39600
O105        O  0.63875283  0.97087914  0.87638318    -0.80300
O106        O  0.69091520  0.91808299  0.96623277    -0.65000
O107        O  0.67729915  0.96397029  0.91329811    -1.11600
C108        C  0.75265035  0.84049162  0.89660337     1.06500
O109        O  0.75751747  0.91513201  0.96006867    -0.78200
O110        O  0.79619734  0.91523690  0.92351889    -0.65800
Ni111      Ni  0.62246646  0.97401727  0.90434551     1.34900
C112        C  0.79161934  0.94204219  0.90957307     0.85300
O113        O  0.64990613  0.98403764  0.95272928    -0.78800
O114        O  0.59828594  0.98133146  0.93098078    -0.89100
C115        C  0.72774373  0.91985597  0.97246811     0.84800
O116        O  0.61127155  0.91613398  0.90558628    -0.67300
O117        O  0.76410524  0.83965630  0.91514809    -0.86600
C118        C  0.61079470  0.89492119  0.92196508     0.85700
C119        C  0.61233572  0.98965247  0.94847746     1.07200
H120        H  0.69221696  0.87233804  0.92681891     0.39000
O121        O  0.70949510  0.89720843  0.92667296    -1.09200
O122        O  0.75730882  0.94864260  0.90092648    -0.65900
Ni123      Ni  0.70592059  0.91845354  0.90015223     1.26300
O124        O  0.63164824  0.90610922  0.93749400    -0.66100
O125        O  0.73274520  0.87052811  0.88848832    -0.78400
C126        C  0.66932027  0.95918434  0.86586659     0.85100
O127        O  0.70000869  0.94051604  0.87341238    -0.65600
Ni128      Ni  0.75978327  0.87817510  0.93721992     1.27400
Ni129      Ni  0.68090179  0.94064266  0.93991306     1.26100
H130        H  0.69322472  0.98934423  0.91255124     0.39600
O131        O  0.36651281  0.60063557  0.87130446    -0.80300
O132        O  0.31082097  0.64707837  0.96205339    -0.65000
O133        O  0.32665889  0.60397067  0.90856357    -1.11600
C134        C  0.24731160  0.72538855  0.89254700     1.06500
O135        O  0.24416725  0.64902315  0.95583728    -0.78200
O136        O  0.20633314  0.64856062  0.91929446    -0.65800
Ni137      Ni  0.38179437  0.59513967  0.89945068     1.34900
C138        C  0.21177898  0.62162379  0.90555452     0.85300
O139        O  0.35306815  0.58271409  0.94789446    -0.78800
O140        O  0.40499602  0.58549234  0.92613066    -0.89100
C141        C  0.27385440  0.64691423  0.96833220     0.84800
O142        O  0.39365122  0.65272940  0.90185450    -0.67300
O143        O  0.23635942  0.72546107  0.91117695    -0.86600
C144        C  0.39371272  0.67199055  0.91871878     0.85700
C145        C  0.39066681  0.57730740  0.94366775     1.07200
H146        H  0.30880484  0.69368005  0.92272665     0.39000
O147        O  0.29248401  0.66926401  0.92238706    -1.09200
O148        O  0.24637900  0.61661477  0.89685711    -0.65900
Ni149      Ni  0.29664240  0.64878440  0.89567593     1.26300
O150        O  0.37071742  0.66137463  0.93370782    -0.66100
O151        O  0.26813793  0.69621777  0.88423307    -0.78400
C152        C  0.33481820  0.61009519  0.86104383     0.85100
O153        O  0.30324715  0.62705076  0.86878416    -0.65600
Ni154      Ni  0.24142102  0.68644604  0.93304860     1.27400
Ni155      Ni  0.32175288  0.62598568  0.93542487     1.26100
H156        H  0.31150935  0.57828154  0.90766199     0.39600
O157        O  0.13331902  0.02885340  0.78476313    -0.80300
O158        O  0.15712661  0.09303558  0.86956781    -0.65000
O159        O  0.11523979  0.08268011  0.81606812    -1.11600
C160        C  0.21749240  0.17129217  0.79432926     1.06500
O161        O  0.18424146  0.15623527  0.86613798    -0.78200
O162        O  0.13868817  0.18416738  0.83402596    -0.65800
Ni163      Ni  0.09457307  0.03170655  0.80654959     1.34900
C164        C  0.12024383  0.18347968  0.81705953     0.85300
O165        O  0.08545374  0.06265677  0.85434082    -0.78800
O166        O  0.05444027  0.03273225  0.82765528    -0.89100
C167        C  0.17627073  0.12415909  0.87660683     0.84800
O168        O  0.12766529  0.99405376  0.82174810    -0.67300
O169        O  0.20893909  0.18762362  0.81134191    -0.86600
C170        C  0.15538408  0.99884924  0.83501883     0.85700
C171        C  0.05434379  0.04498188  0.84608681     1.07200
H172        H  0.20624858  0.09579906  0.83135798     0.39000
O173        O  0.18200708  0.11273662  0.82980668    -1.09200
O174        O  0.13022255  0.15901843  0.80262169    -0.65900
Ni175      Ni  0.16105327  0.10715322  0.80280326     1.26300
O176        O  0.16324072  0.03411123  0.84265553    -0.66100
O177        O  0.20707766  0.13427450  0.79014753    -0.78400
C178        C  0.13792224  0.05690034  0.77137941     0.85100
O179        O  0.14004248  0.09489432  0.77636554    -0.65600
Ni180      Ni  0.19410820  0.16810014  0.83802137     1.27400
Ni181      Ni  0.13507064  0.08690216  0.84280530     1.26100
H182        H  0.09220736  0.10138460  0.81512566     0.39600
O183        O  0.86978692  0.53926158  0.78524422    -0.80300
O184        O  0.84016166  0.48127877  0.87119047    -0.65000
O185        O  0.88604170  0.48793621  0.81834901    -1.11600
C186        C  0.78968436  0.39226052  0.79783924     1.06500
O187        O  0.82277661  0.41452707  0.86978047    -0.78200
O188        O  0.86942027  0.38670569  0.83743247    -0.65800
Ni189      Ni  0.90682893  0.53840981  0.80795998     1.34900
C190        C  0.88755241  0.38719758  0.82026898     0.85300
O191        O  0.91054879  0.51402931  0.85676951    -0.78800
O192        O  0.94537828  0.53979153  0.82990775    -0.89100
C193        C  0.82723888  0.44823893  0.87953122     0.84800
O194        O  0.87212469  0.57628400  0.82204179    -0.67300
O195        O  0.79893929  0.37823695  0.81535702    -0.86600
C196        C  0.84284202  0.57173454  0.83451419     0.85700
C197        C  0.94244035  0.53062786  0.84875036     1.07200
H198        H  0.79475424  0.47020246  0.83310673     0.39000
O199        O  0.82036463  0.45527353  0.83209094    -1.09200
O200        O  0.87549268  0.41025788  0.80564551    -0.65900
Ni201      Ni  0.84192780  0.46030189  0.80514749     1.26300
O202        O  0.83369841  0.53677784  0.84237196    -0.66100
O203        O  0.79797363  0.42950983  0.79283264    -0.78400
C204        C  0.86437614  0.50983251  0.77272404     0.85100
O205        O  0.86271972  0.47225254  0.77859945    -0.65600
Ni206      Ni  0.81295291  0.39997362  0.84171117     1.27400
Ni207      Ni  0.86414960  0.48563284  0.84485111     1.26100
H208        H  0.90961516  0.46981562  0.81841287     0.38000
O209        O  0.75214329  0.41284670  0.03539431    -0.80300
O210        O  0.69349934  0.44681954  0.12103675    -0.65000
O211        O  0.70030551  0.39990848  0.06843143    -1.11600
C212        C  0.61137060  0.50031345  0.04516137     1.06500
O213        O  0.63381476  0.48041325  0.11778523    -0.78200
O214        O  0.60322218  0.42794534  0.08853312    -0.65800
Ni215      Ni  0.74915482  0.37596662  0.05849648     1.34900
C216        C  0.60085826  0.40704987  0.07223950     0.85300
O217        O  0.72128746  0.37328361  0.10715013    -0.78800
O218        O  0.74831018  0.33763223  0.08087684    -0.89100
C219        C  0.66441364  0.46857750  0.12818886     0.84800
O220        O  0.78865606  0.40904919  0.07250683    -0.67300
O221        O  0.59722033  0.49383767  0.06288169    -0.86600
C222        C  0.78557141  0.43750910  0.08565002     0.85700
C223        C  0.73834440  0.34093109  0.09961867     1.07200
H224        H  0.69084946  0.49346710  0.08137390     0.39000
O225        O  0.67307594  0.46950223  0.08084716    -1.09200
O226        O  0.62371662  0.41458133  0.05672959    -0.65900
Ni227      Ni  0.67570215  0.44506174  0.05441641     1.26300
O228        O  0.75147756  0.44855783  0.09343694    -0.66100
O229        O  0.64807727  0.49022789  0.04077496    -0.78400
C230        C  0.72356580  0.42094960  0.02282019     0.85100
O231        O  0.68613265  0.42108571  0.02842054    -0.65600
Ni232      Ni  0.61929681  0.48446466  0.08962299     1.27400
Ni233      Ni  0.69794152  0.42252580  0.09469019     1.26100
H234        H  0.68122074  0.37701303  0.06849153     0.39600
O235        O  0.17457436  0.66380943  0.12412530    -0.80300
O236        O  0.13162973  0.59359479  0.21283889    -0.65000
O237        O  0.17556770  0.61627219  0.15994400    -1.11600
C238        C  0.04977428  0.54970026  0.14035636     1.06500
O239        O  0.12187486  0.52857925  0.20345079    -0.78200
O240        O  0.11962200  0.49763371  0.16566641    -0.65800
Ni241      Ni  0.18965209  0.67159838  0.15225283     1.34900
C242        C  0.14885438  0.50305009  0.15318673     0.85300
O243        O  0.19927341  0.63351545  0.20041316    -0.78800
O244        O  0.20899497  0.68627786  0.17890684    -0.89100
C245        C  0.12916225  0.55515701  0.21714941     0.84800
O246        O  0.13661803  0.69287972  0.15862549    -0.67300
O247        O  0.04753005  0.53760686  0.15880014    -0.86600
C248        C  0.11766266  0.68978243  0.17547411     0.85700
C249        C  0.21402635  0.66912402  0.19614742     1.07200
H250        H  0.08537679  0.60530254  0.17321670     0.39000
O251        O  0.10788740  0.58592369  0.17235679    -1.09200
O252        O  0.15788061  0.53860996  0.14616055    -0.65900
Ni253      Ni  0.12990692  0.59130804  0.14584147     1.26300
O254        O  0.12432412  0.66072380  0.18826682    -0.66100
O255        O  0.08164562  0.56741433  0.13274603    -0.78400
C256        C  0.17174655  0.63146522  0.11320590     0.85100
O257        O  0.15488534  0.59854325  0.11978419    -0.65600
Ni258      Ni  0.08550481  0.53450135  0.18074748     1.27400
Ni259      Ni  0.15356215  0.60832275  0.18671123     1.26100
H260        H  0.19974730  0.59922767  0.15847198     0.39600
O261        O  0.24365195  0.15989751  0.03248630    -0.80300
O262        O  0.29666002  0.13259772  0.11954592    -0.65000
O263        O  0.29160261  0.17654981  0.06627781    -1.11600
C264        C  0.38760072  0.08001012  0.04607162     1.06500
O265        O  0.35912559  0.10436340  0.11811631    -0.78200
O266        O  0.38912482  0.15608928  0.08797055    -0.65800
Ni267      Ni  0.24196352  0.19675195  0.05532375     1.34900
C268        C  0.39085984  0.17629616  0.07131544     0.85300
O269        O  0.26716902  0.20352809  0.10431297    -0.78800
O270        O  0.23840516  0.23534241  0.07727325    -0.89100
C271        C  0.32665132  0.11412411  0.12773466     0.84800
O272        O  0.20384852  0.16102773  0.06884856    -0.67300
O273        O  0.40046585  0.08837980  0.06383718    -0.86600
C274        C  0.20750870  0.13425253  0.08284530     0.85700
C275        C  0.24856715  0.23408257  0.09599809     1.07200
H276        H  0.30557115  0.08425203  0.08092461     0.39000
O277        O  0.32183292  0.10927861  0.08022403    -1.09200
O278        O  0.36953810  0.16555171  0.05589674    -0.65900
Ni279      Ni  0.31967299  0.13224444  0.05338515     1.26300
O280        O  0.24149446  0.12651468  0.09156384    -0.66100
O281        O  0.35076641  0.08813949  0.04105606    -0.78400
C282        C  0.27383376  0.15674358  0.02031366     0.85100
O283        O  0.31057553  0.15482843  0.02682669    -0.65600
Ni284      Ni  0.37593433  0.09875839  0.09014153     1.27400
Ni285      Ni  0.29342211  0.15528120  0.09289897     1.26100
H286        H  0.30927364  0.20058730  0.06623025     0.39600
O287        O  0.81755574  0.91891501  0.12657078    -0.80300
O288        O  0.86431700  0.97748699  0.21662275    -0.65000
O289        O  0.82024084  0.95982565  0.16358308    -1.11600
C290        C  0.94273498  0.03562008  0.14613306     1.06500
O291        O  0.86783922  0.04410072  0.20878448    -0.78200
O292        O  0.87016055  0.08138044  0.17220737    -0.65800
Ni293      Ni  0.81143036  0.90414678  0.15481547     1.34900
C294        C  0.84078083  0.07584334  0.15990271     0.85300
O295        O  0.79960040  0.93437696  0.20323856    -0.78800
O296        O  0.80101608  0.88156787  0.18162816    -0.89100
C297        C  0.86603191  0.01538587  0.22196951     0.84800
O298        O  0.86844779  0.89269310  0.15741440    -0.67300
O299        O  0.94468585  0.04592356  0.16479618    -0.86600
C300        C  0.88860088  0.89379140  0.17390444     0.85700
C301        C  0.79265216  0.89660564  0.19897660     1.07200
H302        H  0.91009759  0.97578185  0.17667122     0.39000
O303        O  0.88608682  0.99328449  0.17656897    -1.09200
O304        O  0.83314520  0.04052087  0.15223301    -0.65900
Ni305      Ni  0.86441962  0.98975639  0.15022126     1.26300
O306        O  0.87672267  0.91570112  0.18902454    -0.66100
O307        O  0.91125283  0.01829823  0.13802187    -0.78400
C308        C  0.82551390  0.95128926  0.11620302     0.85100
O309        O  0.84118621  0.98376415  0.12381606    -0.65600
Ni310      Ni  0.90557891  0.04430138  0.18648073     1.27400
Ni311      Ni  0.84264647  0.96531489  0.19025613     1.26100
H312        H  0.79479373  0.97506006  0.16268359     0.39600
O313        O  0.87126618  0.10660726  0.37620789    -0.80300
O314        O  0.81067850  0.14192834  0.46674828    -0.65000
O315        O  0.83038280  0.10434609  0.41293576    -1.11600
C316        C  0.74833554  0.22444952  0.39833412     1.06500
O317        O  0.74397961  0.14211179  0.45985361    -0.78200
O318        O  0.70754896  0.14589593  0.42265084    -0.65800
Ni319      Ni  0.88612926  0.10007412  0.40421082     1.34900
C320        C  0.71446015  0.12120409  0.40811848     0.85300
O321        O  0.85691733  0.08093710  0.45200356    -0.78800
O322        O  0.90903641  0.08952659  0.43076477    -0.89100
C323        C  0.77351034  0.13871462  0.47239083     0.84800
O324        O  0.89320534  0.15812711  0.40766792    -0.67300
O325        O  0.73743341  0.22337036  0.41699612    -0.86600
C326        C  0.89100354  0.17635789  0.42472798     0.85700
C327        C  0.89467706  0.07677739  0.44759571     1.07200
H328        H  0.80901100  0.19236310  0.42877370     0.39000
O329        O  0.79340131  0.16707730  0.42770453    -1.09200
O330        O  0.74980260  0.11629536  0.40021535    -0.65900
Ni331      Ni  0.79937676  0.14920211  0.40072121     1.26300
O332        O  0.87071790  0.16150201  0.43976005    -0.66100
O333        O  0.77005697  0.19626861  0.38984858    -0.78400
C334        C  0.83900378  0.11401547  0.36597718     0.85100
O335        O  0.80706132  0.12971711  0.37376634    -0.65600
Ni336      Ni  0.74163417  0.18213050  0.43805300     1.27400
Ni337      Ni  0.82375319  0.12373698  0.44011121     1.26100
H338        H  0.81650456  0.07810172  0.41124916     0.39600
O339        O  0.13081818  0.46714500  0.37172573    -0.80300
O340        O  0.18735764  0.42070324  0.46230210    -0.65000
O341        O  0.17284404  0.46443430  0.40868436    -1.11600
C342        C  0.23965385  0.33609980  0.39209562     1.06500
O343        O  0.25289610  0.41076755  0.45506462    -0.78200
O344        O  0.28868309  0.40567998  0.41804922    -0.65800
Ni345      Ni  0.11832669  0.47721657  0.39993748     1.34900
C346        C  0.28581679  0.43367051  0.40461222     0.85300
O347        O  0.15050658  0.48892165  0.44833471    -0.78800
O348        O  0.09855079  0.49234695  0.42660369    -0.89100
C349        C  0.22457037  0.41793269  0.46793050     0.84800
O350        O  0.10078451  0.42126203  0.40399456    -0.67300
O351        O  0.24939995  0.33355612  0.41083048    -0.86600
C352        C  0.10069644  0.40265334  0.42108213     0.85700
C353        C  0.11415930  0.50000415  0.44386666     1.07200
H354        H  0.18149312  0.37338113  0.42285602     0.39000
O355        O  0.20081505  0.39607818  0.42241074    -1.09200
O356        O  0.25183457  0.44394119  0.39646493    -0.65900
Ni357      Ni  0.19854372  0.41731280  0.39569012     1.26300
O358        O  0.12497551  0.41254389  0.43549848    -0.66100
O359        O  0.22266635  0.36789804  0.38393568    -0.78400
C360        C  0.16252290  0.45778875  0.36140469     0.85100
O361        O  0.19389116  0.44045478  0.36905247    -0.65600
Ni362      Ni  0.24983466  0.37286954  0.43257978     1.27400
Ni363      Ni  0.17696062  0.44250022  0.43570714     1.26100
H364        H  0.18991968  0.48880989  0.40739862     0.39600
O365        O  0.63368622  0.53259717  0.28369508    -0.80300
O366        O  0.65309537  0.58241608  0.37321354    -0.65000
O367        O  0.61517002  0.57777213  0.31859526    -1.11600
C368        C  0.71382863  0.67368932  0.30067088     1.06500
O369        O  0.68605947  0.64322312  0.37198602    -0.78200
O370        O  0.63715084  0.67654702  0.34203057    -0.65800
Ni371      Ni  0.59699483  0.52782855  0.30662244     1.34900
C372        C  0.61810388  0.67858259  0.32520279     0.85300
O373        O  0.58435374  0.55244904  0.35601238    -0.78800
O374        O  0.55835431  0.52016330  0.32848362    -0.89100
C375        C  0.67267456  0.61183767  0.38159307     0.84800
O376        O  0.63463641  0.49060867  0.31912319    -0.67300
O377        O  0.70539249  0.68628973  0.31846518    -0.86600
C378        C  0.65839908  0.49280146  0.33431710     0.85700
C379        C  0.55674888  0.53080067  0.34714952     1.07200
H380        H  0.70516639  0.58946855  0.33489222     0.39000
O381        O  0.68103623  0.60675943  0.33403469    -1.09200
O382        O  0.62834997  0.65728284  0.30961658    -0.65900
Ni383      Ni  0.66028222  0.60637051  0.30681234     1.26300
O384        O  0.66166874  0.52572922  0.34485046    -0.66100
O385        O  0.70559672  0.63679861  0.29541944    -0.78400
C386        C  0.63865023  0.56428039  0.27237652     0.85100
O387        O  0.63942597  0.60051106  0.27985454    -0.65600
Ni388      Ni  0.69327144  0.66081496  0.34438368     1.27400
Ni389      Ni  0.63364764  0.57881003  0.34578363     1.26100
H390        H  0.59147107  0.59558925  0.31803992     0.39600
O391        O  0.37276714  0.04146629  0.28188848    -0.80300
O392        O  0.34804203  0.98059752  0.36846352    -0.65000
O393        O  0.39203541  0.99229623  0.31528334    -1.11600
C394        C  0.30308296  0.89224945  0.29327125     1.06500
O395        O  0.31901038  0.91827856  0.36546203    -0.78200
O396        O  0.37549851  0.89234009  0.33637196    -0.65800
Ni397      Ni  0.40894516  0.04422574  0.30497326     1.34900
C398        C  0.39669095  0.89325179  0.32007496     0.85300
O399        O  0.41708137  0.01601120  0.35383395    -0.78800
O400        O  0.44677946  0.04899449  0.32721901    -0.89100
C401        C  0.32828160  0.95012350  0.37584524     0.84800
O402        O  0.37019901  0.07894726  0.31845976    -0.67300
O403        O  0.31182157  0.87817404  0.31077034    -0.86600
C404        C  0.34318642  0.07250899  0.33196615     0.85700
C405        C  0.44639024  0.03687761  0.34572571     1.07200
H406        H  0.30127575  0.97288765  0.32913924     0.39000
O407        O  0.32671305  0.95758418  0.32845157    -1.09200
O408        O  0.38537918  0.91367187  0.30427384    -0.65900
Ni409      Ni  0.34987761  0.96251678  0.30185906     1.26300
O410        O  0.33898020  0.03776202  0.34091320    -0.66100
O411        O  0.30777204  0.93032589  0.28894491    -0.78400
C412        C  0.36882343  0.01143294  0.26950450     0.85100
O413        O  0.37197917  0.97405584  0.27552285    -0.65600
Ni414      Ni  0.31783969  0.90201938  0.33741627     1.27400
Ni415      Ni  0.37072881  0.98740270  0.34185027     1.26100
H416        H  0.41682759  0.97596523  0.31500069     0.39600
C417        C  0.51765886  0.73795353  0.32737578    -0.11300
C418        C  0.52994725  0.77608467  0.31906471     0.11300
C419        C  0.57145152  0.78246595  0.31358551    -0.03100
C420        C  0.59879612  0.74895132  0.31515236    -0.05900
C421        C  0.58627808  0.71051051  0.32299759    -0.16600
C422        C  0.54546503  0.70503691  0.32985293     0.02300
C423        C  0.49877086  0.80932409  0.31760394     0.12200
C424        C  0.58697270  0.82463852  0.30672757     0.62800
H425        H  0.63061529  0.75277521  0.31075589     0.12200
C426        C  0.53083667  0.66464847  0.33926796     0.55000
H427        H  0.48589827  0.73424109  0.33192635     0.08000
C428        C  0.47081052  0.81174209  0.30123352    -0.05800
C429        C  0.43909355  0.84129828  0.30210274    -0.06500
C430        C  0.43410221  0.86729530  0.31900945    -0.16100
C431        C  0.46335750  0.86600822  0.33492026    -0.01700
C432        C  0.49512637  0.83668593  0.33395663    -0.09200
C433        C  0.47357992  0.78215875  0.28337240     0.65000
H434        H  0.41669434  0.84290604  0.29001281     0.10500
C435        C  0.46153410  0.89564811  0.35274699     0.63400
H436        H  0.51677788  0.83394887  0.34634466     0.07900
F437        F  0.52681465  0.63509175  0.32428156    -0.19600
F438        F  0.49317355  0.66937653  0.34875104    -0.15800
F439        F  0.55837087  0.65079615  0.35371399    -0.19300
F440        F  0.58097835  0.85333556  0.32198168    -0.22700
F441        F  0.56630912  0.83746450  0.28955023    -0.24200
F442        F  0.62838932  0.82380594  0.30223038    -0.18200
F443        F  0.42945666  0.88501554  0.36549507    -0.20600
F444        F  0.45597761  0.93564668  0.34575567    -0.21800
F445        F  0.49741460  0.89487061  0.36396379    -0.19000
F446        F  0.44496912  0.79142636  0.26854318    -0.19100
F447        F  0.46666929  0.74202317  0.28994446    -0.22900
F448        F  0.51205117  0.78436484  0.27458737    -0.24500
C449        C  0.39250867  0.48255342  0.40287568    -0.11300
C450        C  0.40168414  0.47960147  0.38210958     0.11300
C451        C  0.37228070  0.46225992  0.36876346    -0.03100
C452        C  0.33355540  0.45071474  0.37653628    -0.05900
C453        C  0.32456928  0.45303103  0.39736244    -0.16600
C454        C  0.35467498  0.46876712  0.41085116     0.02300
C455        C  0.44269896  0.49414777  0.37483466     0.12200
C456        C  0.38279615  0.45313763  0.34675685     0.62800
H457        H  0.31089138  0.43703531  0.36658404     0.12200
C458        C  0.34725712  0.47040327  0.43360781     0.55000
H459        H  0.41584030  0.49476818  0.41290093     0.08000
C460        C  0.45067584  0.53647771  0.37046201    -0.05800
C461        C  0.48930464  0.54767407  0.36241981    -0.06500
C462        C  0.51979355  0.51796387  0.35870187    -0.16100
C463        C  0.51264617  0.47608611  0.36409793    -0.01700
C464        C  0.47409526  0.46485013  0.37220022    -0.09200
C465        C  0.41804034  0.56939502  0.37368702     0.65000
H466        H  0.49547055  0.57954600  0.35820409     0.10500
C467        C  0.54598927  0.44372422  0.36147377     0.63400
H468        H  0.46781805  0.43287761  0.37618271     0.07900
F469        F  0.30941872  0.48801792  0.43760849    -0.19600
F470        F  0.37682444  0.49373416  0.44339309    -0.15800
F471        F  0.34834381  0.43074765  0.44160936    -0.19300
F472        F  0.41166975  0.42178280  0.34604703    -0.22700
F473        F  0.39856417  0.48803259  0.33733751    -0.24200
F474        F  0.34874120  0.44036784  0.33590684    -0.18200
F475        F  0.58068640  0.45587138  0.37196275    -0.20600
F476        F  0.55569215  0.43946509  0.34114780    -0.21800
F477        F  0.53389289  0.40535538  0.36880080    -0.19000
F478        F  0.43242899  0.60867444  0.36902779    -0.19100
F479        F  0.40556910  0.56951338  0.39375390    -0.22900
F480        F  0.38458333  0.56126854  0.36145755    -0.24500
C481        C  0.28583035  0.17550555  0.33307134    -0.11300
C482        C  0.28216051  0.18139901  0.35405603     0.11300
C483        C  0.29167581  0.14841171  0.36746452    -0.03100
C484        C  0.30979644  0.11236851  0.35949577    -0.05900
C485        C  0.31738601  0.10799900  0.33860075    -0.16600
C486        C  0.30271766  0.13889188  0.32500800     0.02300
C487        C  0.27088026  0.22321797  0.36167795     0.12200
C488        C  0.28335163  0.15164760  0.39009794     0.62800
H489        H  0.31985949  0.08803855  0.36969345     0.12200
C490        C  0.30414233  0.13324580  0.30214394     0.55000
H491        H  0.27678437  0.20055402  0.32305121     0.08000
C492        C  0.30103395  0.25424626  0.36476437    -0.05800
C493        C  0.28923909  0.29193334  0.37379280    -0.06500
C494        C  0.24847201  0.29932557  0.37955982    -0.16100
C495        C  0.21818291  0.26884786  0.37590501    -0.01700
C496        C  0.22983829  0.23131110  0.36667492    -0.09200
C497        C  0.34549983  0.24723710  0.35869667     0.65000
H498        H  0.31195106  0.31558728  0.37691849     0.10500
C499        C  0.17413169  0.27550934  0.38254349     0.63400
H500        H  0.20729457  0.20730137  0.36395431     0.07900
F501        F  0.34378043  0.13853489  0.29510934    -0.19600
F502        F  0.27928711  0.16166573  0.29229150    -0.15800
F503        F  0.29041285  0.09399796  0.29715175    -0.19300
F504        F  0.24200786  0.15862486  0.39333547    -0.22700
F505        F  0.30559761  0.18399859  0.39828455    -0.24200
F506        F  0.29393348  0.11564802  0.40031015    -0.18200
F507        F  0.14967076  0.24180693  0.37787294    -0.20600
F508        F  0.15835017  0.31007716  0.37287079    -0.21800
F509        F  0.17254013  0.28146037  0.40332198    -0.19000
F510        F  0.37022614  0.28036737  0.36398677    -0.19100
F511        F  0.34806282  0.24209565  0.33790539    -0.22900
F512        F  0.36069448  0.21220205  0.36818933    -0.24500
C513        C  0.01203851  0.33789838  0.44150820    -0.11300
C514        C  0.01133041  0.30554112  0.42745892     0.11300
C515        C  0.04059227  0.30442492  0.41153535    -0.03100
C516        C  0.06982104  0.33643428  0.41020332    -0.05900
C517        C  0.07071779  0.36883205  0.42434739    -0.16600
C518        C  0.04158460  0.36952486  0.44040175     0.02300
C519        C  0.97788336  0.27461921  0.42903239     0.12200
C520        C  0.04077823  0.26964427  0.39603598     0.62800
H521        H  0.09218303  0.33658013  0.39801584     0.12200
C522        C  0.04054897  0.40418752  0.45586344     0.55000
H523        H  0.98871718  0.33837667  0.45324060     0.08000
C524        C  0.97906095  0.24128142  0.44303254    -0.05800
C525        C  0.94807941  0.21100923  0.44206655    -0.06500
C526        C  0.91654619  0.21347077  0.42764603    -0.16100
C527        C  0.91345139  0.24875532  0.41489431    -0.01700
C528        C  0.94431636  0.27903967  0.41595647    -0.09200
C529        C  0.01323540  0.23732614  0.45855891     0.65000
H530        H  0.94931438  0.18408475  0.45191912     0.10500
C531        C  0.87728823  0.25505349  0.40069219     0.63400
H532        H  0.94326369  0.30597468  0.40611340     0.07900
F533        F  0.07626097  0.40365665  0.46710413    -0.19600
F534        F  0.00791794  0.40026067  0.46922893    -0.15800
F535        F  0.03664724  0.44179737  0.44598484    -0.19300
F536        F  0.00468339  0.26992611  0.38508282    -0.22700
F537        F  0.04472775  0.23186915  0.40580613    -0.24200
F538        F  0.07283133  0.27363681  0.38238921    -0.18200
F539        F  0.87971816  0.29249388  0.39043086    -0.20600
F540        F  0.84132802  0.25493013  0.41183535    -0.21800
F541        F  0.87578227  0.22391407  0.38636981    -0.19000
F542        F  0.00975612  0.20125875  0.46988087    -0.19100
F543        F  0.01182297  0.27044177  0.47180120    -0.22900
F544        F  0.05092390  0.23693630  0.44889348    -0.24500
C545        C  0.72354625  0.41253583  0.36315800    -0.11300
C546        C  0.70943431  0.37557478  0.35450893     0.11300
C547        C  0.68293275  0.37741006  0.33757096    -0.03100
C548        C  0.66887005  0.41639403  0.33091560    -0.05900
C549        C  0.68078789  0.45380956  0.34037008    -0.16600
C550        C  0.71107678  0.45172906  0.35591225     0.02300
C551        C  0.72004654  0.33561010  0.36463787     0.12200
C552        C  0.66843892  0.33828806  0.32693960     0.62800
H553        H  0.64677795  0.41742257  0.31869353     0.12200
C554        C  0.73048675  0.49005807  0.36506202     0.55000
H555        H  0.74363918  0.41043328  0.37619091     0.08000
C556        C  0.75958891  0.31750779  0.36343464    -0.05800
C557        C  0.76707187  0.28036255  0.37412475    -0.06500
C558        C  0.73666118  0.26137132  0.38613674    -0.16100
C559        C  0.69677397  0.27893455  0.38684047    -0.01700
C560        C  0.68946936  0.31618410  0.37629125    -0.09200
C561        C  0.79379249  0.33741487  0.35109479     0.65000
H562        H  0.79729137  0.26647001  0.37369118     0.10500
C563        C  0.66154745  0.25779973  0.39796681     0.63400
H564        H  0.65962855  0.33082717  0.37718234     0.07900
F565        F  0.76488386  0.48036068  0.37643321    -0.19600
F566        F  0.70262015  0.50940442  0.37767623    -0.15800
F567        F  0.74280419  0.51690753  0.34979939    -0.19300
F568        F  0.64149166  0.31679910  0.33931425    -0.22700
F569        F  0.70157081  0.31315524  0.32245704    -0.24200
F570        F  0.64850134  0.34719914  0.30890748    -0.18200
F571        F  0.66779779  0.25919350  0.41869487    -0.20600
F572        F  0.65865445  0.21693916  0.39181125    -0.21800
F573        F  0.62434322  0.27679540  0.39397981    -0.19000
F574        F  0.82879579  0.31312654  0.35082060    -0.19100
F575        F  0.80413106  0.37531853  0.35933623    -0.22900
F576        F  0.78115012  0.34316809  0.33127074    -0.24500
C577        C  0.52807996  0.08766360  0.37856141    -0.11300
C578        C  0.56195012  0.06216266  0.37427839     0.11300
C579        C  0.55629941  0.02586229  0.36260196    -0.03100
C580        C  0.51760752  0.01849772  0.35390252    -0.05900
C581        C  0.48408098  0.04469259  0.35757548    -0.16600
C582        C  0.48879062  0.07905004  0.37063403     0.02300
C583        C  0.60306639  0.07467425  0.38196962     0.12200
C584        C  0.59069564  0.99469042  0.35969775     0.62800
H585        H  0.51323725  0.99216017  0.34399776     0.12200
C586        C  0.45247734  0.10607264  0.37618093     0.55000
H587        H  0.53281706  0.11456392  0.38806736     0.08000
C588        C  0.62867653  0.10234166  0.37096966    -0.05800
C589        C  0.66643715  0.11431509  0.37951904    -0.06500
C590        C  0.67860578  0.10048815  0.39880915    -0.16100
C591        C  0.65360822  0.07195787  0.40951945    -0.01700
C592        C  0.61610963  0.05934754  0.40084523    -0.09200
C593        C  0.61525889  0.12080591  0.35079087     0.65000
H594        H  0.68574376  0.13661811  0.37170824     0.10500
C595        C  0.66678405  0.05485182  0.42992877     0.63400
H596        H  0.59612410  0.03816530  0.40896434     0.07900
F597        F  0.43480307  0.12234720  0.35884385    -0.19600
F598        F  0.46378424  0.13861888  0.38862850    -0.15800
F599        F  0.42371729  0.08244024  0.38640455    -0.19300
F600        F  0.60135423  0.97810409  0.37832560    -0.22700
F601        F  0.62471066  0.01358852  0.35118794    -0.24200
F602        F  0.57907505  0.96240989  0.34714644    -0.18200
F603        F  0.66619455  0.08601208  0.44427432    -0.20600
F604        F  0.70611141  0.03903346  0.42843419    -0.21800
F605        F  0.64110320  0.02333127  0.43649761    -0.19000
F606        F  0.64622187  0.14391590  0.34180918    -0.19100
F607        F  0.58189600  0.14647671  0.35385998    -0.22900
F608        F  0.60435316  0.08980341  0.33741475    -0.24500
C609        C  0.73362799  0.81589296  0.22979359    -0.11300
C610        C  0.76428425  0.80226410  0.24320760     0.11300
C611        C  0.80373126  0.82066003  0.24231202    -0.03100
C612        C  0.81054540  0.85365589  0.22862502    -0.05900
C613        C  0.77999906  0.86717490  0.21515286    -0.16600
C614        C  0.74108696  0.84760130  0.21543238     0.02300
C615        C  0.75360703  0.76951599  0.25840831     0.12200
C616        C  0.83909562  0.80393284  0.25486464     0.62800
H617        H  0.84067883  0.86770790  0.22751546     0.12200
C618        C  0.70764588  0.86045501  0.20072707     0.55000
H619        H  0.70379052  0.80117272  0.23060525     0.08000
C620        C  0.73412989  0.77953260  0.27693299    -0.05800
C621        C  0.72253946  0.74724715  0.29014719    -0.06500
C622        C  0.73000977  0.70510882  0.28573439    -0.16100
C623        C  0.75144580  0.69533134  0.26751241    -0.01700
C624        C  0.76240258  0.72785801  0.25405976    -0.09200
C625        C  0.72526538  0.82427628  0.28266807     0.65000
H626        H  0.70649808  0.75503298  0.30400785     0.10500
C627        C  0.76339780  0.65119492  0.26226511     0.63400
H628        H  0.77761423  0.72100001  0.23983242     0.07900
F629        F  0.69850315  0.90189227  0.20349986    -0.19600
F630        F  0.67204390  0.83769131  0.20356888    -0.15800
F631        F  0.72069579  0.85446166  0.18096925    -0.19300
F632        F  0.84897622  0.76461378  0.24817383    -0.22700
F633        F  0.82847002  0.80189625  0.27516200    -0.24200
F634        F  0.87370887  0.82861310  0.25313739    -0.18200
F635        F  0.78993227  0.64980667  0.24583574    -0.20600
F636        F  0.72874556  0.62860581  0.25739395    -0.21800
F637        F  0.78304975  0.63290673  0.27859239    -0.19000
F638        F  0.70973542  0.82746111  0.30216603    -0.19100
F639        F  0.69695963  0.84099736  0.26937074    -0.22900
F640        F  0.76085846  0.84750555  0.28185661    -0.24500
C641        C  0.88121770  0.07016541  0.27215724    -0.11300
C642        C  0.84695834  0.05629521  0.28303981     0.11300
C643        C  0.81894043  0.02843776  0.27396327    -0.03100
C644        C  0.82738664  0.01389721  0.25425774    -0.05900
C645        C  0.86205753  0.02745774  0.24344020    -0.16600
C646        C  0.88963871  0.05596823  0.25249711     0.02300
C647        C  0.84316064  0.07001288  0.30437243     0.12200
C648        C  0.78007363  0.01494397  0.28488389     0.62800
H649        H  0.80629096  0.99285239  0.24686852     0.12200
C650        C  0.92866091  0.07024959  0.24186514     0.55000
H651        H  0.90182559  0.09181215  0.27946995     0.08000
C652        C  0.86596429  0.05045949  0.31987556    -0.05800
C653        C  0.86303988  0.06594446  0.33964160    -0.06500
C654        C  0.83906569  0.10086616  0.34438618    -0.16100
C655        C  0.81685483  0.12113154  0.32869635    -0.01700
C656        C  0.81944394  0.10515986  0.30881591    -0.09200
C657        C  0.89406428  0.01388838  0.31549237     0.65000
H658        H  0.87982605  0.05061679  0.35167229     0.10500
C659        C  0.79118937  0.15957810  0.33266160     0.63400
H660        H  0.80311043  0.12006588  0.29649769     0.07900
F661        F  0.95107534  0.03613347  0.23570492    -0.19600
F662        F  0.95327382  0.09371273  0.25452800    -0.15800
F663        F  0.91921216  0.09440807  0.22516885    -0.19300
F664        F  0.75679773  0.04934895  0.28970517    -0.22700
F665        F  0.78985719  0.99396055  0.30253573    -0.24200
F666        F  0.75627897  0.98906975  0.27299366    -0.18200
F667        F  0.81383855  0.18848855  0.34334229    -0.20600
F668        F  0.75662061  0.14889779  0.34371574    -0.21800
F669        F  0.77845285  0.17813208  0.31477554    -0.19000
F670        F  0.91155288  0.99808430  0.33301152    -0.19100
F671        F  0.92553903  0.02620529  0.30273532    -0.22900
F672        F  0.87222774  0.98236656  0.30634236    -0.24500
C673        C  0.30055194  0.05771735  0.17673632    -0.11300
C674        C  0.33159482  0.07261737  0.18947599     0.11300
C675        C  0.35876973  0.10377432  0.18239918    -0.03100
C676        C  0.35450325  0.11837938  0.16239308    -0.05900
C677        C  0.32433409  0.10258959  0.14940869    -0.16600
C678        C  0.29641092  0.07221169  0.15666066     0.02300
C679        C  0.33680961  0.05336553  0.20977078     0.12200
C680        C  0.39333467  0.12010278  0.19560895     0.62800
H681        H  0.37581747  0.14115165  0.15641594     0.12200
C682        C  0.26364520  0.05394332  0.14299100     0.55000
H683        H  0.28032516  0.03376449  0.18251236     0.08000
C684        C  0.31445564  0.06693639  0.22690509    -0.05800
C685        C  0.32481331  0.05071240  0.24603329    -0.06500
C686        C  0.35640525  0.02145322  0.24845133    -0.16100
C687        C  0.37733924  0.00637546  0.23112823    -0.01700
C688        C  0.36672246  0.02242002  0.21194454    -0.09200
C689        C  0.28035747  0.09881234  0.22501079     0.65000
H690        H  0.30878724  0.06146788  0.25943280     0.10500
C691        C  0.41198534  0.97523372  0.23293193     0.63400
H692        H  0.38280395  0.01211259  0.19846959     0.07900
F693        F  0.23639605  0.08460771  0.13730998    -0.19600
F694        F  0.24165510  0.02282585  0.15262677    -0.15800
F695        F  0.28160063  0.03726053  0.12581602    -0.19300
F696        F  0.42166853  0.08900239  0.19897038    -0.22700
F697        F  0.37812422  0.13346294  0.21406365    -0.24200
F698        F  0.41344770  0.15314380  0.18654539    -0.18200
F699        F  0.39671358  0.93787167  0.23997370    -0.20600
F700        F  0.44133855  0.98976239  0.24627634    -0.21800
F701        F  0.43097764  0.96826442  0.21442682    -0.19000
F702        F  0.26365821  0.10880407  0.24371387    -0.19100
F703        F  0.24933144  0.08322622  0.21296519    -0.22900
F704        F  0.29526802  0.13484860  0.21631277    -0.24500
C705        C  0.05336627  0.03448292  0.12783439    -0.11300
C706        C  0.05397561  0.06856868  0.11458433     0.11300
C707        C  0.01637091  0.08855692  0.10965651    -0.03100
C708        C  0.97981995  0.07514221  0.11924777    -0.05900
C709        C  0.98009106  0.04336795  0.13379871    -0.16600
C710        C  0.01726328  0.02218358  0.13796957     0.02300
C711        C  0.09470650  0.08355338  0.10690664     0.12200
C712        C  0.01496885  0.12476956  0.09489785     0.62800
H713        H  0.95103802  0.09070632  0.11621608     0.12200
C714        C  0.01936837  0.98814867  0.15391977     0.55000
H715        H  0.08202807  0.01880013  0.13098062     0.08000
C716        C  0.12304305  0.10460192  0.11962739    -0.05800
C717        C  0.16010320  0.11919249  0.11116663    -0.06500
C718        C  0.16969946  0.11378660  0.09057817    -0.16100
C719        C  0.14196506  0.09198538  0.07797800    -0.01700
C720        C  0.10524844  0.07642540  0.08651840    -0.09200
C721        C  0.11425640  0.11218310  0.14199771     0.65000
H722        H  0.18160334  0.13617395  0.12050434     0.10500
C723        C  0.15131441  0.08488497  0.05569232     0.63400
H724        H  0.08401155  0.05907290  0.07721446     0.07900
F725        F  0.01703740  0.00556963  0.17303910    -0.19600
F726        F  0.05563601  0.96599811  0.15262074    -0.15800
F727        F  0.98727558  0.96056456  0.15149073    -0.19300
F728        F  0.02691575  0.11190192  0.07579732    -0.22700
F729        F  0.04099154  0.15585961  0.10139420    -0.24200
F730        F  0.97587442  0.14121505  0.09328792    -0.18200
F731        F  0.12276252  0.05898950  0.04674427    -0.20600
F732        F  0.18959436  0.06686066  0.05366715    -0.21800
F733        F  0.15082005  0.12223097  0.04535692    -0.19000
F734        F  0.14370743  0.13728414  0.15081707    -0.19100
F735        F  0.11398433  0.07497514  0.15243277    -0.22900
F736        F  0.07662373  0.13138207  0.14426734    -0.24500
C737        C  0.24792853  0.83088001  0.25176188    -0.11300
C738        C  0.27127593  0.79414586  0.25187079     0.11300
C739        C  0.30687494  0.79186241  0.26406446    -0.03100
C740        C  0.31604071  0.82513453  0.27697329    -0.05900
C741        C  0.29205648  0.86129961  0.27751713    -0.16600
C742        C  0.25801423  0.86492688  0.26430633     0.02300
C743        C  0.25842144  0.75882054  0.23874104     0.12200
C744        C  0.33548012  0.75472325  0.26328435     0.62800
H745        H  0.34253409  0.82325416  0.28682134     0.12200
C746        C  0.23221831  0.90401685  0.26376572     0.55000
H747        H  0.22158636  0.83252259  0.24180020     0.08000
C748        C  0.22747325  0.73025208  0.24466502    -0.05800
C749        C  0.21589893  0.69863209  0.23099945    -0.06500
C750        C  0.23497299  0.69433976  0.21194840    -0.16100
C751        C  0.26843173  0.72071959  0.20699098    -0.01700
C752        C  0.27834367  0.75356553  0.22007108    -0.09200
C753        C  0.20654970  0.73354527  0.26522426     0.65000
H754        H  0.19041603  0.67837640  0.23467522     0.10500
C755        C  0.29363839  0.71547891  0.18779646     0.63400
H756        H  0.30216912  0.77534843  0.21574681     0.07900
F757        F  0.19860097  0.89986861  0.25112058    -0.19600
F758        F  0.25574530  0.93671500  0.25667979    -0.15800
F759        F  0.21803018  0.91311020  0.28305071    -0.19300
F760        F  0.35320104  0.75216906  0.24425092    -0.22700
F761        F  0.31402118  0.71864354  0.26723444    -0.24200
F762        F  0.36673695  0.75773069  0.27739567    -0.18200
F763        F  0.27780209  0.74044893  0.17263790    -0.20600
F764        F  0.29368756  0.67467805  0.18137670    -0.21800
F765        F  0.33404377  0.72672364  0.19122069    -0.19000
F766        F  0.17732023  0.70287664  0.26798445    -0.19100
F767        F  0.18727205  0.77149823  0.26700413    -0.22900
F768        F  0.23533902  0.72968524  0.28049193    -0.24500
C769        C  0.17938272  0.51249721  0.31099646    -0.11300
C770        C  0.14951997  0.49332349  0.29900796     0.11300
C771        C  0.12698436  0.45929815  0.30683561    -0.03100
C772        C  0.13301551  0.44769204  0.32724394    -0.05900
C773        C  0.16184866  0.46797531  0.33952550    -0.16600
C774        C  0.18592202  0.50053270  0.33126075     0.02300
C775        C  0.14326840  0.50961212  0.27818097     0.12200
C776        C  0.09710407  0.43531328  0.29364805     0.62800
H777        H  0.11502282  0.42283782  0.33386798     0.12200
C778        C  0.21710265  0.52373273  0.34398218     0.55000
H779        H  0.19689821  0.53772308  0.30439421     0.08000
C780        C  0.11824441  0.54457839  0.27422878    -0.05800
C781        C  0.11516383  0.55931708  0.25412784    -0.06500
C782        C  0.13618879  0.54003029  0.23811862    -0.16100
C783        C  0.16210813  0.50556954  0.24228894    -0.01700
C784        C  0.16522373  0.49115297  0.26236851    -0.09200
C785        C  0.09525693  0.56626495  0.29123827     0.65000
H786        H  0.09576169  0.58564505  0.25069248     0.10500
C787        C  0.18734034  0.48454492  0.22582732     0.63400
H788        H  0.18484276  0.46507087  0.26596350     0.07900
F789        F  0.19777685  0.54160856  0.36048006    -0.19600
F790        F  0.23630636  0.55494034  0.33301865    -0.15800
F791        F  0.24694627  0.49662942  0.35074395    -0.19300
F792        F  0.11792779  0.41778373  0.27751635    -0.22700
F793        F  0.06708506  0.46143539  0.28619797    -0.24200
F794        F  0.07798726  0.40372590  0.30435493    -0.18200
F795        F  0.20911382  0.51393449  0.21489489    -0.20600
F796        F  0.16186868  0.46283747  0.21291726    -0.21800
F797        F  0.21526582  0.45668502  0.23387184    -0.19000
F798        F  0.07088040  0.59813550  0.28400280    -0.19100
F799        F  0.12292652  0.58284544  0.30485658    -0.22900
F800        F  0.07020272  0.53841262  0.30134452    -0.24500
C801        C  0.06450607  0.79279749  0.18447172    -0.11300
C802        C  0.02354951  0.77998974  0.18591174     0.11300
C803        C  0.01384448  0.73717780  0.18570778    -0.03100
C804        C  0.04585332  0.70836769  0.18328531    -0.05900
C805        C  0.08650618  0.72136184  0.18040906    -0.16600
C806        C  0.09642378  0.76408282  0.18172131     0.02300
C807        C  0.99130361  0.81185979  0.18352620     0.12200
C808        C  0.96967226  0.72220237  0.18694079     0.62800
H809        H  0.03910769  0.67553645  0.18247024     0.12200
C810        C  0.14043415  0.77932428  0.18023834     0.55000
H811        H  0.07099648  0.82572982  0.18442790     0.08000
C812        C  0.97410074  0.83390677  0.19993153    -0.05800
C813        C  0.94086690  0.86053448  0.19603506    -0.06500
C814        C  0.92581886  0.86723692  0.17621319    -0.16100
C815        C  0.94634961  0.84796252  0.15957069    -0.01700
C816        C  0.97834000  0.82015661  0.16372532    -0.09200
C817        C  0.99142704  0.83027351  0.22124596     0.65000
H818        H  0.92625804  0.87615480  0.20863537     0.10500
C819        C  0.93569141  0.85641794  0.13746252     0.63400
H820        H  0.99337732  0.80379324  0.15145022     0.07900
F821        F  0.14348981  0.82131279  0.18424697    -0.19600
F822        F  0.15559935  0.77253529  0.16092325    -0.15800
F823        F  0.16444611  0.75849324  0.19420770    -0.19300
F824        F  0.94836370  0.73504260  0.16993143    -0.22700
F825        F  0.95078640  0.73812687  0.20400823    -0.24200
F826        F  0.96730742  0.67941883  0.18803757    -0.18200
F827        F  0.93596886  0.89865253  0.13382025    -0.20600
F828        F  0.89753367  0.84015202  0.13301315    -0.21800
F829        F  0.96362310  0.83852215  0.12425830    -0.19000
F830        F  0.96967131  0.85413079  0.23500167    -0.19100
F831        F  0.03169739  0.84374458  0.22124713    -0.22900
F832        F  0.99018451  0.78962560  0.22783403    -0.24500
C833        C  0.20824293  0.42275740  0.12190699    -0.11300
C834        C  0.20471666  0.38802436  0.13458428     0.11300
C835        C  0.18857197  0.39247529  0.15433741    -0.03100
C836        C  0.17245048  0.43116125  0.16002706    -0.05900
C837        C  0.17254968  0.46557717  0.14674297    -0.16600
C838        C  0.19230463  0.46168309  0.12750115     0.02300
C839        C  0.21501616  0.34685073  0.12599984     0.12200
C840        C  0.18860977  0.35650110  0.16928546     0.62800
H841        H  0.15883359  0.43451950  0.17492016     0.12200
C842        C  0.19512099  0.49727187  0.11238295     0.55000
H843        H  0.22187320  0.41839553  0.10705761     0.08000
C844        C  0.18608561  0.32445753  0.11433730    -0.05800
C845        C  0.19782893  0.28632758  0.10599408    -0.06500
C846        C  0.23765769  0.27068071  0.10830478    -0.16100
C847        C  0.26691012  0.29333165  0.11971569    -0.01700
C848        C  0.25478773  0.33111512  0.12860882    -0.09200
C849        C  0.14331857  0.34126361  0.11019353     0.65000
H850        H  0.17622095  0.26882454  0.09694383     0.10500
C851        C  0.31101912  0.27870874  0.12173493     0.63400
H852        H  0.27648129  0.34919525  0.13732057     0.07900
F853        F  0.15622755  0.51106469  0.10754135    -0.19600
F854        F  0.21417032  0.48557279  0.09448660    -0.15800
F855        F  0.21773858  0.52936216  0.12058589    -0.19300
F856        F  0.22864633  0.34516540  0.17340664    -0.22700
F857        F  0.16807949  0.32285074  0.16125088    -0.24200
F858        F  0.16979084  0.36681476  0.18744090    -0.18200
F859        F  0.32761282  0.27130647  0.10273159    -0.20600
F860        F  0.31220329  0.24263312  0.13309749    -0.21800
F861        F  0.33540897  0.30791291  0.13124734    -0.19000
F862        F  0.12047157  0.31457103  0.09828216    -0.19100
F863        F  0.14601773  0.37871613  0.10004325    -0.22900
F864        F  0.12249050  0.34696863  0.12825689    -0.24500
C865        C  0.68855499  0.53065895  0.17544962    -0.11300
C866        C  0.65994631  0.51417082  0.18921035     0.11300
C867        C  0.63289623  0.48231145  0.18289056    -0.03100
C868        C  0.63697936  0.46636205  0.16312729    -0.05900
C869        C  0.66590707  0.48251240  0.14945726    -0.16600
C870        C  0.69124936  0.51598112  0.15538451     0.02300
C871        C  0.65853099  0.53097881  0.21016712     0.12200
C872        C  0.59906301  0.46627254  0.19676117     0.62800
H873        H  0.61667960  0.44203400  0.15792057     0.12200
C874        C  0.71896657  0.53761591  0.14012117     0.55000
H875        H  0.70803212  0.55583616  0.18044442     0.08000
C876        C  0.68399710  0.51497825  0.22566944    -0.05800
C877        C  0.67770415  0.52848110  0.24569049    -0.06500
C878        C  0.64703610  0.55733530  0.25057673    -0.16100
C879        C  0.62279052  0.57479789  0.23492954    -0.01700
C880        C  0.62946994  0.56166103  0.21479765    -0.09200
C881        C  0.71720141  0.48331617  0.22108131     0.65000
H882        H  0.69614217  0.51579429  0.25787730     0.10500
C883        C  0.58845983  0.60502860  0.23964651     0.63400
H884        H  0.61078519  0.57382445  0.20258164     0.07900
F885        F  0.74687195  0.50976024  0.13217466    -0.19600
F886        F  0.74063595  0.56988449  0.14881988    -0.15800
F887        F  0.69540383  0.55372544  0.12452795    -0.19300
F888        F  0.57247316  0.49820629  0.20146926    -0.22700
F889        F  0.61564656  0.45066567  0.21449643    -0.24200
F890        F  0.57646382  0.43508215  0.18770112    -0.18200
F891        F  0.60453899  0.64068805  0.24807278    -0.20600
F892        F  0.56119933  0.58710093  0.25320649    -0.21800
F893        F  0.56685413  0.61610859  0.22239128    -0.19000
F894        F  0.73731917  0.47052304  0.23849476    -0.19100
F895        F  0.74590658  0.50053048  0.20807308    -0.22900
F896        F  0.70025131  0.44870911  0.21204900    -0.24500
C897        C  0.50123872  0.34606194  0.07683316    -0.11300
C898        C  0.51320345  0.30748421  0.06930692     0.11300
C899        C  0.55349432  0.30193762  0.06169073    -0.03100
C900        C  0.58113007  0.33550208  0.06257485    -0.05900
C901        C  0.56976468  0.37361138  0.07117843    -0.16600
C902        C  0.52895893  0.37914425  0.07840911     0.02300
C903        C  0.48233891  0.27370020  0.06992149     0.12200
C904        C  0.56722204  0.26075174  0.05290333     0.62800
H905        H  0.61218914  0.33195843  0.05696659     0.12200
C906        C  0.51405689  0.41971072  0.08753381     0.55000
H907        H  0.46988899  0.34956089  0.08204427     0.08000
C908        C  0.47207610  0.25326986  0.08824055    -0.05800
C909        C  0.44130629  0.22283878  0.08791381    -0.06500
C910        C  0.42036018  0.21192565  0.06996816    -0.16100
C911        C  0.42983073  0.23393365  0.05168745    -0.01700
C912        C  0.46069828  0.26455810  0.05216377    -0.09200
C913        C  0.49369544  0.26337343  0.10808534     0.65000
H914        H  0.43361222  0.20714003  0.10194543     0.10500
C915        C  0.40799503  0.22591059  0.03169055     0.63400
H916        H  0.46831817  0.28198377  0.03859375     0.07900
F917        F  0.47219886  0.41928181  0.09118157    -0.19600
F918        F  0.52224498  0.45209543  0.07434576    -0.15800
F919        F  0.53332216  0.42667162  0.10589116    -0.19300
F920        F  0.54400608  0.25137259  0.03599633    -0.22700
F921        F  0.56236236  0.22968684  0.06721162    -0.24200
F922        F  0.60806557  0.26157737  0.04707860    -0.18200
F923        F  0.42187594  0.25176007  0.01632094    -0.20600
F924        F  0.36636477  0.23289900  0.03397647    -0.21800
F925        F  0.41477985  0.18554434  0.02552859    -0.19000
F926        F  0.48129040  0.23749552  0.12374483    -0.19100
F927        F  0.48510894  0.30361787  0.11379921    -0.22900
F928        F  0.53562196  0.25895880  0.10573819    -0.24500
C929        C  0.97250237  0.51201723  0.10074951    -0.11300
C930        C  0.93564191  0.51817404  0.11144412     0.11300
C931        C  0.93651866  0.53861045  0.13041994    -0.03100
C932        C  0.97449835  0.55158160  0.13817906    -0.05900
C933        C  0.01177257  0.54337429  0.12816685    -0.16600
C934        C  0.01081561  0.52428157  0.10880439     0.02300
C935        C  0.89743172  0.49814902  0.10385714     0.12200
C936        C  0.89773789  0.54524318  0.14289008     0.62800
H937        H  0.97561583  0.56657028  0.15285873     0.12200
C938        C  0.04991057  0.51485430  0.09723967     0.55000
H939        H  0.97113019  0.49572286  0.08642253     0.08000
C940        C  0.87182851  0.51633478  0.08893946    -0.05800
C941        C  0.83473822  0.49631142  0.08378850    -0.06500
C942        C  0.82386810  0.45801990  0.09239563    -0.16100
C943        C  0.85076513  0.43880354  0.10646135    -0.01700
C944        C  0.88696414  0.45946182  0.11206159    -0.09200
C945        C  0.88439432  0.55583922  0.07808883     0.65000
H946        H  0.81441973  0.50983075  0.07259396     0.10500
C947        C  0.84186920  0.39616649  0.11512904     0.63400
H948        H  0.90771536  0.44550166  0.12293338     0.07900
F949        F  0.07010254  0.55141907  0.09267979    -0.19600
F950        F  0.04213703  0.49445792  0.07918406    -0.15800
F951        F  0.07498414  0.48986983  0.10893084    -0.19300
F952        F  0.88059717  0.50749869  0.14811939    -0.22700
F953        F  0.86962329  0.56787420  0.13178473    -0.24200
F954        F  0.90557424  0.56652543  0.16069314    -0.18200
F955        F  0.84293061  0.36758510  0.09959630    -0.20600
F956        F  0.80361343  0.39568347  0.12422471    -0.21800
F957        F  0.87050055  0.38438762  0.12954733    -0.19000
F958        F  0.85482341  0.56879820  0.06441839    -0.19100
F959        F  0.92037772  0.54905592  0.06745986    -0.22900
F960        F  0.89061152  0.58721109  0.09197725    -0.24500
C961        C  0.77896606  0.15635448  0.12989108    -0.11300
C962        C  0.78182206  0.19060312  0.14277526     0.11300
C963        C  0.79748846  0.18526797  0.16258798    -0.03100
C964        C  0.81446120  0.14655258  0.16793655    -0.05900
C965        C  0.81554024  0.11297854  0.15424147    -0.16600
C966        C  0.79567788  0.11756598  0.13513723     0.02300
C967        C  0.77236064  0.23205568  0.13394122     0.12200
C968        C  0.79659399  0.22041617  0.17783368     0.62800
H969        H  0.82805470  0.14260441  0.18279807     0.12200
C970        C  0.79319512  0.08262902  0.11988580     0.55000
H971        H  0.76544770  0.16113078  0.11506099     0.08000
C972        C  0.80040446  0.25158404  0.12054040    -0.05800
C973        C  0.78792990  0.28732305  0.11007618    -0.06500
C974        C  0.74916808  0.30530923  0.11303877    -0.16100
C975        C  0.72166153  0.28687900  0.12720686    -0.01700
C976        C  0.73371014  0.25005400  0.13727971    -0.09200
C977        C  0.84316824  0.23421431  0.11687421     0.65000
H978        H  0.80824526  0.30086846  0.09890066     0.10500
C979        C  0.67904561  0.30437491  0.13079262     0.63400
H980        H  0.71258590  0.23424888  0.14737679     0.07900
F981        F  0.77387571  0.09474103  0.10215369    -0.19600
F982        F  0.77088745  0.05026513  0.12820372    -0.15800
F983        F  0.83224545  0.06947223  0.11478453    -0.19300
F984        F  0.75640703  0.23214402  0.18132286    -0.22700
F985        F  0.81831654  0.25405029  0.17043132    -0.24200
F986        F  0.81358967  0.20887545  0.19624851    -0.18200
F987        F  0.65764364  0.30543896  0.11268383    -0.20600
F988        F  0.68187118  0.34400699  0.13857524    -0.21800
F989        F  0.65684971  0.28063491  0.14449826    -0.19000
F990        F  0.86712127  0.26096764  0.10540875    -0.19100
F991        F  0.84060187  0.19702845  0.10660771    -0.22900
F992        F  0.86285351  0.22786063  0.13519102    -0.24500
C993        C  0.81114578  0.41975446  0.93521149    -0.11300
C994        C  0.78085519  0.44839747  0.94076904     0.11300
C995        C  0.76942854  0.48000630  0.92693098    -0.03100
C996        C  0.78690477  0.47993512  0.90732582    -0.05900
C997        C  0.81480572  0.44914773  0.90121872    -0.16600
C998        C  0.82784188  0.41893837  0.91550423     0.02300
C999        C  0.76201848  0.44397858  0.96128272     0.12200
C1000       C  0.73861132  0.51321195  0.93276040     0.62800
H1001       H  0.77771896  0.50312172  0.89631329     0.12200
C1002       C  0.85926627  0.38601345  0.91012068     0.55000
H1003       H  0.82043803  0.39683954  0.94633723     0.08000
C1004       C  0.73253408  0.41280752  0.96569913    -0.05800
C1005       C  0.71895483  0.40776873  0.98588719    -0.06500
C1006       C  0.73497594  0.43179231  0.00168305    -0.16100
C1007       C  0.76362040  0.46374183  0.99717602    -0.01700
C1008       C  0.77673166  0.46913789  0.97696438    -0.09200
C1009       C  0.71616922  0.38438183  0.94924323     0.65000
H1010       H  0.69706512  0.38366906  0.98967200     0.10500
C1011       C  0.78008480  0.49231647  0.01356557     0.63400
H1012       H  0.79972512  0.49225021  0.97331119     0.07900
F1013       F  0.84260622  0.35825226  0.89649351    -0.19600
F1014       F  0.87176430  0.36386008  0.92704798    -0.15800
F1015       F  0.89356339  0.40439883  0.90160362    -0.19300
F1016       F  0.75378945  0.53642619  0.94866379    -0.22700
F1017       F  0.70202376  0.49504392  0.93864163    -0.24200
F1018       F  0.73056529  0.53994934  0.91677450    -0.18200
F1019       F  0.80536497  0.47052288  0.02659458    -0.20600
F1020       F  0.74781016  0.50910430  0.02444986    -0.21800
F1021       F  0.80267969  0.52472909  0.00541825    -0.19000
F1022       F  0.68690309  0.35716896  0.95670649    -0.19100
F1023       F  0.74772681  0.36108316  0.94113942    -0.22900
F1024       F  0.69837651  0.40768310  0.93398701    -0.24500
C1025       C  0.24680617  0.13180940  0.92215749    -0.11300
C1026       C  0.21871165  0.13093229  0.93822442     0.11300
C1027       C  0.17619679  0.12691112  0.93411234    -0.03100
C1028       C  0.16335068  0.12203332  0.91381147    -0.05900
C1029       C  0.19152197  0.12380457  0.89771633    -0.16600
C1030       C  0.23401382  0.12882705  0.90187907     0.02300
C1031       C  0.23498440  0.13691430  0.95907111     0.12200
C1032       C  0.14454251  0.13030282  0.95094623     0.62800
H1033       H  0.13104096  0.11922397  0.91025992     0.12200
C1034       C  0.26594239  0.13128804  0.88501430     0.55000
H1035       H  0.27898436  0.13599643  0.92569578     0.08000
C1036       C  0.25202964  0.10389261  0.97051650    -0.05800
C1037       C  0.26614989  0.11200756  0.99029012    -0.06500
C1038       C  0.26476690  0.15192479  0.99853864    -0.16100
C1039       C  0.24978416  0.18527383  0.98672133    -0.01700
C1040       C  0.23523558  0.17719037  0.96703126    -0.09200
C1041       C  0.25441152  0.06019183  0.96209779     0.65000
H1042       H  0.27678089  0.08690858  0.99982093     0.10500
C1043       C  0.24928406  0.22909814  0.99498846     0.63400
H1044       H  0.22337369  0.20219112  0.95774025     0.07900
F1045       F  0.30553963  0.13112431  0.89257985    -0.19600
F1046       F  0.26095805  0.16745322  0.87399802    -0.15800
F1047       F  0.26193953  0.09771369  0.87220004    -0.19300
F1048       F  0.14512695  0.17003107  0.95874991    -0.22700
F1049       F  0.15318828  0.10242048  0.96631448    -0.24200
F1050       F  0.10528641  0.12225717  0.94399319    -0.18200
F1051       F  0.23648946  0.25751173  0.98054229    -0.20600
F1052       F  0.28836120  0.24004715  0.00114411    -0.21800
F1053       F  0.22286369  0.23142321  0.01139229    -0.19000
F1054       F  0.27352935  0.03327962  0.97547807    -0.19100
F1055       F  0.27659142  0.06005595  0.94419436    -0.22900
F1056       F  0.21533788  0.04542313  0.95839815    -0.24500
C1057       C  0.06247318  0.28406358  0.81082846    -0.11300
C1058       C  0.02211442  0.27084308  0.81434267     0.11300
C1059       C  0.01355748  0.22793868  0.81666183    -0.03100
C1060       C  0.04646021  0.19974851  0.81641669    -0.05900
C1061       C  0.08694082  0.21340441  0.81403228    -0.16600
C1062       C  0.09532456  0.25593917  0.81085477     0.02300
C1063       C  0.98949715  0.30277683  0.81570555     0.12200
C1064       C  0.97007411  0.21207700  0.81968410     0.62800
H1065       H  0.04101633  0.16693118  0.81868271     0.12200
C1066       C  0.13886910  0.27130425  0.80751280     0.55000
H1067       H  0.06807100  0.31682179  0.80848987     0.08000
C1068       C  0.98358316  0.32698006  0.83336688    -0.05800
C1069       C  0.95018131  0.35447892  0.83401366    -0.06500
C1070       C  0.92361860  0.35960251  0.81742042    -0.16100
C1071       C  0.93098466  0.33673884  0.79932933    -0.01700
C1072       C  0.96395911  0.30861729  0.79889973    -0.09200
C1073       C  0.01248747  0.32404604  0.85139087     0.65000
H1074       H  0.94462439  0.37254028  0.84756714     0.10500
C1075       C  0.90378508  0.34065528  0.78073063     0.63400
H1076       H  0.97005368  0.29051388  0.78541085     0.07900
F1077       F  0.14024287  0.31364972  0.80418166    -0.19600
F1078       F  0.15556016  0.25186146  0.79074692    -0.15800
F1079       F  0.16258937  0.26261818  0.82437012    -0.19300
F1080       F  0.94743335  0.21905233  0.80229037    -0.22700
F1081       F  0.95172922  0.23227651  0.83580052    -0.24200
F1082       F  0.96927036  0.16994866  0.82377040    -0.18200
F1083       F  0.90757699  0.37995408  0.77251799    -0.20600
F1084       F  0.86337734  0.33335808  0.78603771    -0.21800
F1085       F  0.91435454  0.31245838  0.76579905    -0.19000
F1086       F  0.99886817  0.34744920  0.86765034    -0.19100
F1087       F  0.05084738  0.33857857  0.84587569    -0.22900
F1088       F  0.01581369  0.28335650  0.85780897    -0.24500
C1089       C  0.45163197  0.52425931  0.98611338    -0.11300
C1090       C  0.48267020  0.55371655  0.98934265     0.11300
C1091       C  0.48253238  0.59088215  0.97786406    -0.03100
C1092       C  0.45140137  0.59693305  0.96336756    -0.05900
C1093       C  0.42043107  0.56734087  0.95998797    -0.16600
C1094       C  0.42023374  0.53037697  0.97172567     0.02300
C1095       C  0.51643279  0.54329891  0.00377812     0.12200
C1096       C  0.51531518  0.62383680  0.98074791     0.62800
H1097       H  0.45114967  0.62505503  0.95433438     0.12200
C1098       C  0.38924388  0.49562333  0.96945978     0.55000
H1099       H  0.45245640  0.49552777  0.99468818     0.08000
C1100       C  0.51168939  0.54609632  0.02505792    -0.05800
C1101       C  0.54495384  0.53505799  0.03754953    -0.06500
C1102       C  0.58175443  0.51795569  0.02979869    -0.16100
C1103       C  0.58568783  0.51398291  0.00832754    -0.01700
C1104       C  0.55322619  0.52771270  0.99578852    -0.09200
C1105       C  0.47123317  0.55923875  0.03463973     0.65000
H1106       H  0.54146525  0.53816053  0.05380714     0.10500
C1107       C  0.62235732  0.49322144  0.99847465     0.63400
H1108       H  0.55555816  0.52492029  0.97944929     0.07900
F1109       F  0.36838487  0.49054597  0.98760662    -0.19600
F1110       F  0.40975065  0.45921672  0.96504051    -0.15800
F1111       F  0.36089771  0.50251161  0.95429347    -0.19300
F1112       F  0.55310090  0.60845830  0.97493719    -0.22700
F1113       F  0.51699061  0.63543883  0.00091258    -0.24200
F1114       F  0.50747712  0.65899432  0.96927847    -0.18200
F1115       F  0.61845948  0.49090373  0.97757441    -0.20600
F1116       F  0.62580092  0.45320833  0.00574878    -0.21800
F1117       F  0.65769907  0.51528207  0.00266649    -0.19000
F1118       F  0.47340662  0.56019030  0.05563126    -0.19100
F1119       F  0.44069713  0.53149498  0.02946536    -0.22900
F1120       F  0.46043813  0.59832514  0.02790976    -0.24500
C1121       C  0.26304369  0.61011692  0.02327967    -0.11300
C1122       C  0.23343631  0.63815010  0.03042963     0.11300
C1123       C  0.22008005  0.67084867  0.01769879    -0.03100
C1124       C  0.23473451  0.67263576  0.99764122    -0.05900
C1125       C  0.26368234  0.64422354  0.99025100    -0.16600
C1126       C  0.27869802  0.61267120  0.00330624     0.02300
C1127       C  0.21803738  0.63370256  0.05161090     0.12200
C1128       C  0.19176369  0.70468360  0.02548401     0.62800
H1129       H  0.22400976  0.69680342  0.98751266     0.12200
C1130       C  0.30976440  0.58102600  0.99600436     0.55000
H1131       H  0.27353651  0.58600840  0.03349297     0.08000
C1132       C  0.18252646  0.61036085  0.05652155    -0.05800
C1133       C  0.16779199  0.61092896  0.07669433    -0.06500
C1134       C  0.18841770  0.63267202  0.09209417    -0.16100
C1135       C  0.22625168  0.65266593  0.08734979    -0.01700
C1136       C  0.23975928  0.65360141  0.06705045    -0.09200
C1137       C  0.16115428  0.58410788  0.04061959     0.65000
H1138       H  0.14006691  0.59420908  0.08060923     0.10500
C1139       C  0.25346235  0.67154944  0.10360957     0.63400
H1140       H  0.26753794  0.67015551  0.06299098     0.07900
F1141       F  0.31833142  0.55166057  0.01075952    -0.19600
F1142       F  0.34610266  0.60070076  0.99097814    -0.15800
F1143       F  0.29458930  0.56062227  0.97917729    -0.19300
F1144       F  0.21158741  0.72680500  0.04048703    -0.22700
F1145       F  0.15622474  0.68780232  0.03343590    -0.24200
F1146       F  0.18070552  0.73209329  0.01023545    -0.18200
F1147       F  0.29234774  0.68037839  0.09625274    -0.20600
F1148       F  0.25791662  0.64410991  0.11964572    -0.21800
F1149       F  0.23635670  0.70807694  0.11052127    -0.19000
F1150       F  0.12754693  0.56336887  0.04858040    -0.19100
F1151       F  0.18829083  0.55492282  0.03317695    -0.22900
F1152       F  0.14773859  0.60858813  0.02472515    -0.24500
C1153       C  0.13097975  0.56338136  0.87425811    -0.11300
C1154       C  0.09741554  0.56506071  0.88753279     0.11300
C1155       C  0.10319306  0.57867096  0.90765627    -0.03100
C1156       C  0.14192848  0.59419332  0.91325163    -0.05900
C1157       C  0.17501904  0.59652405  0.89939467    -0.16600
C1158       C  0.16983372  0.57899866  0.87971713     0.02300
C1159       C  0.05581867  0.55723164  0.87913172     0.12200
C1160       C  0.06818995  0.57757620  0.92293071     0.62800
H1161       H  0.14616512  0.60599622  0.92846685     0.12200
C1162       C  0.20421131  0.57784432  0.86416865     0.55000
H1163       H  0.12570222  0.55175532  0.85907979     0.08000
C1164       C  0.03450819  0.58868103  0.86844459    -0.05800
C1165       C  0.99618428  0.57930772  0.85986181    -0.06500
C1166       C  0.97872699  0.53968958  0.86153504    -0.16100
C1167       C  0.99944209  0.50852444  0.87280597    -0.01700
C1168       C  0.03791083  0.51794683  0.88145458    -0.09200
C1169       C  0.05294664  0.63158591  0.86545875     0.65000
H1170       H  0.98011246  0.60255139  0.85104170     0.10500
C1171       C  0.98200701  0.46506145  0.87481963     0.63400
H1172       H  0.05483861  0.49446493  0.88969547     0.07900
F1173       F  0.21740801  0.61766854  0.85987915    -0.19600
F1174       F  0.19193434  0.56005958  0.84606630    -0.15800
F1175       F  0.23628202  0.55449412  0.87176033    -0.19300
F1176       F  0.05608443  0.53698187  0.92608293    -0.22700
F1177       F  0.03511389  0.60006157  0.91577176    -0.24200
F1178       F  0.07956240  0.59409959  0.94144963    -0.18200
F1179       F  0.00768851  0.43918597  0.88575686    -0.20600
F1180       F  0.97659220  0.44807367  0.85575974    -0.21800
F1181       F  0.94469516  0.46650414  0.88479711    -0.19000
F1182       F  0.02543121  0.65864260  0.85649496    -0.19100
F1183       F  0.08713901  0.62895535  0.85308142    -0.22900
F1184       F  0.06431366  0.64820202  0.88393106    -0.24500
C1185       C  0.18727090  0.81372018  0.86862887    -0.11300
C1186       C  0.21910980  0.84070038  0.86293684     0.11300
C1187       C  0.26043351  0.82808919  0.86547589    -0.03100
C1188       C  0.26843878  0.78885004  0.87409944    -0.05900
C1189       C  0.23653231  0.76254757  0.88045736    -0.16600
C1190       C  0.19527782  0.77464178  0.87731578     0.02300
C1191       C  0.20781355  0.88220348  0.85467181     0.12200
C1192       C  0.29579917  0.85619367  0.85936397     0.62800
H1193       H  0.29976899  0.77913950  0.87679323     0.12200
C1194       C  0.15986731  0.74652731  0.88329154     0.55000
H1195       H  0.15590080  0.82402236  0.86666109     0.08000
C1196       C  0.19323425  0.88735104  0.83464249    -0.05800
C1197       C  0.17872269  0.92655555  0.82856798    -0.06500
C1198       C  0.17828787  0.96087402  0.84180565    -0.16100
C1199       C  0.19602868  0.95618413  0.86144599    -0.01700
C1200       C  0.20972402  0.91659728  0.86758579    -0.09200
C1201       C  0.19094692  0.85106626  0.82004479     0.65000
H1202       H  0.16605412  0.93014881  0.81348412     0.10500
C1203       C  0.19983220  0.99206063  0.87617562     0.63400
H1204       H  0.22122127  0.91179686  0.88282144     0.07900
F1205       F  0.12313281  0.76009417  0.87511492    -0.19600
F1206       F  0.15593124  0.74566387  0.90418623    -0.15800
F1207       F  0.16689411  0.70673930  0.87632244    -0.19300
F1208       F  0.29583652  0.89133231  0.87130567    -0.22700
F1209       F  0.29189075  0.86776570  0.83923840    -0.24200
F1210       F  0.33335488  0.83673406  0.86164714    -0.18200
F1211       F  0.21815880  0.98034134  0.89423873    -0.20600
F1212       F  0.16139098  0.00750918  0.88072077    -0.21800
F1213       F  0.22381967  0.02283416  0.86759517    -0.19000
F1214       F  0.18404100  0.86416314  0.80031700    -0.19100
F1215       F  0.15921013  0.82506271  0.82574949    -0.22900
F1216       F  0.22729428  0.82898966  0.82019355    -0.24500
C1217       C  0.55089111  0.04999301  0.98812899    -0.11300
C1218       C  0.51790231  0.02269403  0.99161411     0.11300
C1219       C  0.51689026  0.98424739  0.98128428    -0.03100
C1220       C  0.54902941  0.97454144  0.96777377    -0.05900
C1221       C  0.58222851  0.00157946  0.96442712    -0.16600
C1222       C  0.58350605  0.03979626  0.97487196     0.02300
C1223       C  0.48430372  0.03562419  0.00575333     0.12200
C1224       C  0.48187128  0.95369284  0.98437821     0.62800
H1225       H  0.54832201  0.94562786  0.95946224     0.12200
C1226       C  0.61877805  0.06976793  0.97173234     0.55000
H1227       H  0.55086552  0.07945945  0.99595198     0.08000
C1228       C  0.48861371  0.03387727  0.02708638    -0.05800
C1229       C  0.45585551  0.04748704  0.03938583    -0.06500
C1230       C  0.41846253  0.06230868  0.03126369    -0.16100
C1231       C  0.41382556  0.06212503  0.00972998    -0.01700
C1232       C  0.44728391  0.04980377  0.99746576    -0.09200
C1233       C  0.52761199  0.01743568  0.03685276     0.65000
H1234       H  0.45958760  0.04671886  0.05569523     0.10500
C1235       C  0.37419369  0.07464966  0.99945087     0.63400
H1236       H  0.44487257  0.05101984  0.98108357     0.07900
F1237       F  0.65458622  0.05210281  0.97890039    -0.19600
F1238       F  0.61251604  0.10668989  0.98192572    -0.15800
F1239       F  0.62323523  0.07868889  0.95129067    -0.19300
F1240       F  0.44565208  0.97057155  0.97730228    -0.22700
F1241       F  0.47756213  0.94442489  0.00477175    -0.24200
F1242       F  0.48857681  0.91693282  0.97410908    -0.18200
F1243       F  0.36605661  0.11583098  0.00337269    -0.20600
F1244       F  0.34259283  0.04995553  0.00657676    -0.21800
F1245       F  0.37598258  0.06984507  0.97858541    -0.19000
F1246       F  0.52485093  0.01670551  0.05782799    -0.19100
F1247       F  0.56057815  0.04221824  0.03160352    -0.22900
F1248       F  0.53502821  0.97744817  0.03034376    -0.24500
C1249       C  0.72817802  0.92816093  0.03046579    -0.11300
C1250       C  0.76726738  0.94531668  0.03352556     0.11300
C1251       C  0.79144933  0.95706533  0.01666262    -0.03100
C1252       C  0.77639533  0.94921219  0.99714740    -0.05900
C1253       C  0.73783720  0.93067604  0.99385414    -0.16600
C1254       C  0.71221022  0.92191421  0.01082871     0.02300
C1255       C  0.78300889  0.94882722  0.05454735     0.12200
C1256       C  0.83328513  0.97727879  0.01921613     0.62800
H1257       H  0.79526980  0.95719979  0.98417074     0.12200
C1258       C  0.66858795  0.90605598  0.00848467     0.55000
H1259       H  0.71033557  0.91950189  0.04370284     0.08000
C1260       C  0.77040266  0.98078772  0.06781162    -0.05800
C1261       C  0.78663045  0.98157489  0.08758587    -0.06500
C1262       C  0.81407423  0.95112926  0.09447358    -0.16100
C1263       C  0.82711163  0.91955262  0.08102575    -0.01700
C1264       C  0.81105006  0.91886839  0.06124976    -0.09200
C1265       C  0.73952369  0.01340553  0.06119717     0.65000
H1266       H  0.77661534  0.00503984  0.09811082     0.10500
C1267       C  0.85809958  0.88696668  0.08741346     0.63400
H1268       H  0.81987745  0.89450435  0.05084258     0.07900
F1269       F  0.64543823  0.93500089  0.99803293    -0.19600
F1270       F  0.64975510  0.89941601  0.02707908    -0.15800
F1271       F  0.66863571  0.86894308  0.99805197    -0.19300
F1272       F  0.86033996  0.94950411  0.02790357    -0.22700
F1273       F  0.83002864  0.01172821  0.03152467    -0.24200
F1274       F  0.84964898  0.99004017  0.00081141    -0.18200
F1275       F  0.84042382  0.86014128  0.10129330    -0.20600
F1276       F  0.89185794  0.90589319  0.09607227    -0.21800
F1277       F  0.87170763  0.86382703  0.07106748    -0.19000
F1278       F  0.73238648  0.04230120  0.07625667    -0.19100
F1279       F  0.70248465  0.99484459  0.05662189    -0.22900
F1280       F  0.75384986  0.03418938  0.04422563    -0.24500
C1281       C  0.54745952  0.80098220  0.94022602    -0.11300
C1282       C  0.52295600  0.79401627  0.92315050     0.11300
C1283       C  0.52941363  0.81767239  0.90535140    -0.03100
C1284       C  0.55911770  0.84920083  0.90561127    -0.05900
C1285       C  0.58301691  0.85779120  0.92295421    -0.16600
C1286       C  0.57816361  0.83184516  0.94041400     0.02300
C1287       C  0.49055251  0.76167785  0.92416550     0.12200
C1288       C  0.50474366  0.80981287  0.88615780     0.62800
H1289       H  0.56314788  0.86797349  0.89212104     0.12200
C1290       C  0.60489802  0.83582362  0.95919123     0.55000
H1291       H  0.54197818  0.78200699  0.95354567     0.08000
C1292       C  0.49939768  0.71934102  0.92084979    -0.05800
C1293       C  0.46654668  0.69131872  0.91926405    -0.06500
C1294       C  0.42561292  0.70406921  0.92157499    -0.16100
C1295       C  0.41691453  0.74603548  0.92607662    -0.01700
C1296       C  0.44981437  0.77427550  0.92729862    -0.09200
C1297       C  0.54327755  0.70379821  0.91927753     0.65000
H1298       H  0.47258053  0.65885020  0.91636830     0.10500
C1299       C  0.37324535  0.76125282  0.92864532     0.63400
H1300       H  0.44399491  0.80680138  0.93011323     0.07900
F1301       F  0.59721306  0.80462553  0.97317096    -0.19600
F1302       F  0.59740686  0.87325837  0.96865880    -0.15800
F1303       F  0.64583721  0.83309661  0.95377081    -0.19300
F1304       F  0.46389139  0.81896499  0.88955240    -0.22700
F1305       F  0.50818503  0.76871978  0.88052452    -0.24200
F1306       F  0.51827359  0.83390143  0.87004617    -0.18200
F1307       F  0.35487023  0.74101313  0.94480695    -0.20600
F1308       F  0.35137993  0.75364469  0.91108157    -0.21800
F1309       F  0.37169250  0.80340261  0.93244570    -0.19000
F1310       F  0.54485478  0.66216848  0.91431072    -0.19100
F1311       F  0.56267028  0.70893521  0.93774167    -0.22900
F1312       F  0.56452007  0.72562526  0.90452911    -0.24500
C1313       C  0.97348725  0.02797407  0.88819053    -0.11300
C1314       C  0.93947261  0.01650035  0.87645877     0.11300
C1315       C  0.94180951  0.01914817  0.85510021    -0.03100
C1316       C  0.97954249  0.02963508  0.84612025    -0.05900
C1317       C  0.01506985  0.03820534  0.85767597    -0.16600
C1318       C  0.01134593  0.03930896  0.87922359     0.02300
C1319       C  0.90283034  0.99837877  0.88670179     0.12200
C1320       C  0.90463386  0.01028447  0.84184967     0.62800
H1321       H  0.98141479  0.03075266  0.82973053     0.12200
C1322       C  0.04673715  0.05176126  0.89284730     0.55000
H1323       H  0.97032890  0.02675930  0.90454747     0.08000
C1324       C  0.90118994  0.95567949  0.89155796    -0.05800
C1325       C  0.86435526  0.93911262  0.89920868    -0.06500
C1326       C  0.82923335  0.96369936  0.90220565    -0.16100
C1327       C  0.83145078  0.00686710  0.89812562    -0.01700
C1328       C  0.86851885  0.02352220  0.89046852    -0.09200
C1329       C  0.93825669  0.92772144  0.88853930     0.65000
H1330       H  0.86245126  0.90628175  0.90256387     0.10500
C1331       C  0.79541705  0.03534112  0.90227523     0.63400
H1332       H  0.87078143  0.05622151  0.88688265     0.07900
F1333       F  0.07962916  0.02549661  0.88977642    -0.19600
F1334       F  0.03628385  0.04974874  0.91320190    -0.15800
F1335       F  0.05818392  0.09217394  0.88859659    -0.19300
F1336       F  0.87342496  0.03762700  0.84655925    -0.22700
F1337       F  0.89098903  0.97021391  0.84506886    -0.24200
F1338       F  0.91343635  0.01470245  0.82138487    -0.18200
F1339       F  0.78232959  0.03020267  0.92211719    -0.20600
F1340       F  0.76355263  0.02628561  0.88920644    -0.21800
F1341       F  0.80580053  0.07661157  0.89955853    -0.19000
F1342       F  0.92967759  0.88688765  0.89346896    -0.19100
F1343       F  0.97003963  0.94091940  0.90079269    -0.22900
F1344       F  0.95095073  0.92890767  0.86850301    -0.24500
C1345       C  0.79754000  0.68074976  0.83746418    -0.11300
C1346       C  0.79320281  0.68490747  0.85852693     0.11300
C1347       C  0.79961569  0.65011847  0.87127365    -0.03100
C1348       C  0.81345429  0.61291948  0.86252837    -0.05900
C1349       C  0.82102342  0.60952260  0.84158765    -0.16600
C1350       C  0.81145988  0.64356941  0.82864859     0.02300
C1351       C  0.78322441  0.72650278  0.86684944     0.12200
C1352       C  0.79219351  0.65238790  0.89402481     0.62800
H1353       H  0.82024346  0.58659255  0.87218930     0.12200
C1354       C  0.81532221  0.64091721  0.80568207     0.55000
H1355       H  0.79133725  0.70756000  0.82802347     0.08000
C1356       C  0.81429169  0.75591922  0.87122303    -0.05800
C1357       C  0.80300677  0.79378612  0.88025138    -0.06500
C1358       C  0.76183456  0.80330559  0.88436988    -0.16100
C1359       C  0.73067754  0.77457414  0.87923545    -0.01700
C1360       C  0.74198300  0.73648417  0.87045503    -0.09200
C1361       C  0.85910257  0.74717998  0.86640423     0.65000
H1362       H  0.82630252  0.81611591  0.88445424     0.10500
C1363       C  0.68585367  0.78369363  0.88371659     0.63400
H1364       H  0.71877644  0.71375961  0.86667239     0.07900
F1365       F  0.85616946  0.63994481  0.80004195    -0.19600
F1366       F  0.79745695  0.67469419  0.79615671    -0.15800
F1367       F  0.79585234  0.60556769  0.79878346    -0.19300
F1368       F  0.75129695  0.66088777  0.89768795    -0.22700
F1369       F  0.81592475  0.68328226  0.90251810    -0.24200
F1370       F  0.80181192  0.61546689  0.90367161    -0.18200
F1371       F  0.66065335  0.75087861  0.87849555    -0.20600
F1372       F  0.67352263  0.81812781  0.87277763    -0.21800
F1373       F  0.68064593  0.79130298  0.90422114    -0.19000
F1374       F  0.88429748  0.77972550  0.87201853    -0.19100
F1375       F  0.86380857  0.74106381  0.84577110    -0.22900
F1376       F  0.87211402  0.71207798  0.87658750    -0.24500
C1377       C  0.75932531  0.33219478  0.74964099    -0.11300
C1378       C  0.74733183  0.29433565  0.75825764     0.11300
C1379       C  0.74560406  0.29002997  0.77953454    -0.03100
C1380       C  0.75700138  0.32390844  0.79160304    -0.05900
C1381       C  0.77114286  0.36174198  0.78323247    -0.16600
C1382       C  0.77090226  0.36631419  0.76168976     0.02300
C1383       C  0.73674908  0.25957884  0.74455865     0.12200
C1384       C  0.73322708  0.24926096  0.78947714     0.62800
H1385       H  0.75625414  0.32022484  0.80792671     0.12200
C1386       C  0.78253435  0.40646947  0.75123183     0.55000
H1387       H  0.75997382  0.33450228  0.73323669     0.08000
C1388       C  0.69778228  0.25675751  0.73524669    -0.05800
C1389       C  0.69044356  0.22388208  0.72183978    -0.06500
C1390       C  0.72034564  0.19369413  0.71784982    -0.16100
C1391       C  0.75852190  0.19529005  0.72789152    -0.01700
C1392       C  0.76643218  0.22889224  0.74092050    -0.09200
C1393       C  0.66438288  0.28865222  0.73915292     0.65000
H1394       H  0.66142276  0.22199390  0.71389248     0.10500
C1395       C  0.79046183  0.16183367  0.72475093     0.63400
H1396       H  0.79589174  0.23159059  0.74837919     0.07900
F1397       F  0.75753630  0.43777582  0.75836563    -0.19600
F1398       F  0.77758312  0.40448023  0.73037494    -0.15800
F1399       F  0.82319696  0.41558611  0.75502226    -0.19300
F1400       F  0.76282280  0.21963524  0.78564184    -0.22700
F1401       F  0.69610468  0.23565193  0.78188336    -0.24200
F1402       F  0.72908944  0.25306689  0.81030351    -0.18200
F1403       F  0.82594866  0.16975150  0.73559669    -0.20600
F1404       F  0.80064399  0.15918457  0.70440664    -0.21800
F1405       F  0.77476909  0.12419759  0.73121599    -0.19000
F1406       F  0.62772705  0.27774496  0.73000710    -0.19100
F1407       F  0.67636491  0.32673089  0.73153002    -0.22900
F1408       F  0.65717719  0.29231230  0.75975198    -0.24500
C1409       C  0.74766328  0.08638033  0.52230197    -0.11300
C1410       C  0.74007819  0.12112439  0.53443331     0.11300
C1411       C  0.74460517  0.16155448  0.52628987    -0.03100
C1412       C  0.75707048  0.16579860  0.50600607    -0.05900
C1413       C  0.76385489  0.13113521  0.49378768    -0.16600
C1414       C  0.75847036  0.09072094  0.50175777     0.02300
C1415       C  0.72649671  0.11440036  0.55556771     0.12200
C1416       C  0.73560828  0.19996176  0.53882678     0.62800
H1417       H  0.76081183  0.19630863  0.49933592     0.12200
C1418       C  0.76291917  0.05264842  0.48848916     0.55000
H1419       H  0.74390369  0.05587144  0.52896029     0.08000
C1420       C  0.68478070  0.10766448  0.56051875    -0.05800
C1421       C  0.67343610  0.10623510  0.58111468    -0.06500
C1422       C  0.70263495  0.11112736  0.59655000    -0.16100
C1423       C  0.74487760  0.11480071  0.59146504    -0.01700
C1424       C  0.75602535  0.11638907  0.57089731    -0.09200
C1425       C  0.65266654  0.10189609  0.54407582     0.65000
H1426       H  0.64152575  0.10230181  0.58532865     0.10500
C1427       C  0.77820392  0.11729268  0.60753775     0.63400
H1428       H  0.78784558  0.12069299  0.56657388     0.07900
F1429       F  0.75545960  0.01641320  0.49920807    -0.19600
F1430       F  0.80226030  0.05073653  0.48073589    -0.15800
F1431       F  0.73523054  0.05469861  0.47264408    -0.19300
F1432       F  0.76249553  0.20213830  0.55497199    -0.22700
F1433       F  0.69589106  0.19851958  0.54618630    -0.24200
F1434       F  0.73970190  0.23592492  0.52747282    -0.18200
F1435       F  0.81687320  0.11144423  0.59927970    -0.20600
F1436       F  0.77219144  0.08698638  0.62215068    -0.21800
F1437       F  0.77749028  0.15587446  0.61659525    -0.19000
F1438       F  0.61352403  0.09882352  0.55212084    -0.19100
F1439       F  0.66086402  0.06595285  0.53345504    -0.22900
F1440       F  0.65317529  0.13501886  0.53071502    -0.24500
C1441       C  0.63319747  0.97602009  0.81172271    -0.11300
C1442       C  0.66795934  0.99423905  0.80292632     0.11300
C1443       C  0.70423760  0.99899875  0.81446616    -0.03100
C1444       C  0.70409838  0.98560729  0.83485517    -0.05900
C1445       C  0.66874222  0.96855295  0.84386837    -0.16600
C1446       C  0.63295501  0.96258221  0.83198234     0.02300
C1447       C  0.66377292  0.01030956  0.78195335     0.12200
C1448       C  0.74252659  0.01862337  0.80536702     0.62800
H1449       H  0.73116861  0.98972568  0.84414473     0.12200
C1450       C  0.59448710  0.94215781  0.84048784     0.55000
H1451       H  0.60569647  0.97327769  0.80260724     0.08000
C1452       C  0.66447063  0.98372410  0.76500139    -0.05800
C1453       C  0.65493164  0.00031762  0.74590208    -0.06500
C1454       C  0.64420482  0.04236363  0.74310876    -0.16100
C1455       C  0.64533292  0.06937782  0.76013846    -0.01700
C1456       C  0.65445958  0.05242910  0.77935715    -0.09200
C1457       C  0.67421168  0.93777161  0.76708857     0.65000
H1458       H  0.65523132  0.97984427  0.73293009     0.10500
C1459       C  0.63668225  0.11551072  0.75841569     0.63400
H1460       H  0.65373448  0.07182787  0.79274000     0.07900
F1461       F  0.56752772  0.93098814  0.82523740    -0.19600
F1462       F  0.57435476  0.96934593  0.85326517    -0.15800
F1463       F  0.60469558  0.90656167  0.85110420    -0.19300
F1464       F  0.73425322  0.05873332  0.79921888    -0.22700
F1465       F  0.75552727  0.99604538  0.78877542    -0.24200
F1466       F  0.77442976  0.02001370  0.81918737    -0.18200
F1467       F  0.59787779  0.12182807  0.75054548    -0.20600
F1468       F  0.66564136  0.13393179  0.74596188    -0.21800
F1469       F  0.63851040  0.13509523  0.77706908    -0.19000
F1470       F  0.67621112  0.91826988  0.74841398    -0.19100
F1471       F  0.64415374  0.91832062  0.77846904    -0.22900
F1472       F  0.71162184  0.93248999  0.77654956    -0.24500
C1473       C  0.25697002  0.33532919  0.74084753    -0.11300
C1474       C  0.27981442  0.29838403  0.74036714     0.11300
C1475       C  0.30990809  0.29276212  0.72514340    -0.03100
C1476       C  0.31614908  0.32453616  0.71082914    -0.05900
C1477       C  0.29261045  0.36108035  0.71084245    -0.16600
C1478       C  0.26283974  0.36700702  0.72627012     0.02300
C1479       C  0.26763469  0.26393661  0.75416788     0.12200
C1480       C  0.33357900  0.25236308  0.72321790     0.62800
H1481       H  0.33913758  0.32061082  0.69911028     0.12200
C1482       C  0.23627175  0.40557265  0.72681948     0.55000
H1483       H  0.23357970  0.33855061  0.75243866     0.08000
C1484       C  0.28202421  0.26017245  0.77434779    -0.05800
C1485       C  0.26722449  0.22717654  0.78638623    -0.06500
C1486       C  0.23797882  0.19868188  0.77910494    -0.16100
C1487       C  0.22400103  0.20260775  0.75879862    -0.01700
C1488       C  0.23939669  0.23507821  0.74668562    -0.09200
C1489       C  0.31180864  0.29140324  0.78332891     0.65000
H1490       H  0.27723901  0.22427990  0.80199171     0.10500
C1491       C  0.19100950  0.17460926  0.75027989     0.63400
H1492       H  0.22862900  0.23903596  0.73125566     0.07900
F1493       F  0.26030313  0.43990051  0.73081814    -0.19600
F1494       F  0.20633445  0.40304622  0.74171649    -0.15800
F1495       F  0.21691240  0.41079207  0.70831584    -0.19300
F1496       F  0.30730834  0.22130314  0.71696826    -0.22700
F1497       F  0.35055571  0.24118930  0.74162951    -0.24200
F1498       F  0.36518422  0.25550475  0.70921600    -0.18200
F1499       F  0.17994282  0.18577248  0.73073113    -0.20600
F1500       F  0.15641390  0.17717849  0.76234900    -0.21800
F1501       F  0.20502526  0.13419884  0.74977968    -0.19000
F1502       F  0.32129424  0.28211731  0.80331974    -0.19100
F1503       F  0.29470974  0.33056813  0.78283210    -0.22900
F1504       F  0.34796837  0.29182501  0.77236125    -0.24500
C1505       C  0.31885054  0.41773510  0.55530381    -0.11300
C1506       C  0.28619240  0.44339294  0.54944728     0.11300
C1507       C  0.27010756  0.47241361  0.56343957    -0.03100
C1508       C  0.28727341  0.47456366  0.58303147    -0.05900
C1509       C  0.31927280  0.44823366  0.58906272    -0.16600
C1510       C  0.33609811  0.41996509  0.57486826     0.02300
C1511       C  0.26942793  0.43888946  0.52854460     0.12200
C1512       C  0.23375346  0.49961611  0.55800762     0.62800
H1513       H  0.27436710  0.49542949  0.59416760     0.12200
C1514       C  0.37284347  0.39322024  0.58017310     0.55000
H1515       H  0.33068343  0.39580738  0.54434245     0.08000
C1516       C  0.28916125  0.45682537  0.51148398    -0.05800
C1517       C  0.27231964  0.45031342  0.49213326    -0.06500
C1518       C  0.23682865  0.42629197  0.48923421    -0.16100
C1519       C  0.21695700  0.40841645  0.50631308    -0.01700
C1520       C  0.23378901  0.41505291  0.52576517    -0.09200
C1521       C  0.32808726  0.48239480  0.51364745     0.65000
H1522       H  0.28724774  0.46358822  0.47892181     0.10500
C1523       C  0.17925906  0.38122621  0.50397391     0.63400
H1524       H  0.21953184  0.40124937  0.53902475     0.07900
F1525       F  0.38528586  0.36905456  0.56394729    -0.19600
F1526       F  0.36328422  0.36703381  0.59610344    -0.15800
F1527       F  0.40533485  0.41835371  0.58568131    -0.19300
F1528       F  0.19916453  0.47523136  0.55582738    -0.22700
F1529       F  0.24112511  0.52050449  0.54001151    -0.24200
F1530       F  0.22592838  0.52879730  0.57287860    -0.18200
F1531       F  0.16729840  0.36366081  0.52225457    -0.20600
F1532       F  0.18741504  0.34943382  0.49051570    -0.21800
F1533       F  0.14694977  0.40466095  0.49674196    -0.19000
F1534       F  0.34118554  0.49834966  0.49519555    -0.19100
F1535       F  0.35926170  0.45802101  0.52134581    -0.22900
F1536       F  0.32124451  0.51524285  0.52663090    -0.24500
C1537       C  0.36984160  0.51025589  0.77621452    -0.11300
C1538       C  0.34784654  0.54732136  0.77900138     0.11300
C1539       C  0.33220957  0.56849835  0.76186396    -0.03100
C1540       C  0.33998350  0.55235424  0.74245508    -0.05900
C1541       C  0.36274737  0.51581366  0.73944982    -0.16600
C1542       C  0.37704728  0.49358756  0.75667967     0.02300
C1543       C  0.34247765  0.56402736  0.79995497     0.12200
C1544       C  0.30828646  0.60869657  0.76393922     0.62800
H1545       H  0.32884425  0.56895736  0.72926296     0.12200
C1546       C  0.40038282  0.45313462  0.75455656     0.55000
H1547       H  0.38160476  0.49462562  0.78955328     0.08000
C1548       C  0.31310196  0.54767556  0.81372335    -0.05800
C1549       C  0.31021360  0.56493125  0.83331442    -0.06500
C1550       C  0.33488165  0.59836589  0.83930322    -0.16100
C1551       C  0.36264599  0.61611668  0.82519084    -0.01700
C1552       C  0.36667944  0.59794133  0.80585823    -0.09200
C1553       C  0.28484271  0.51232909  0.80773160     0.65000
H1554       H  0.28951363  0.55151770  0.84435635     0.10500
C1555       C  0.38662081  0.65502837  0.83033638     0.63400
H1556       H  0.38866858  0.61027804  0.79507021     0.07900
F1557       F  0.41366578  0.43821654  0.77314828    -0.19600
F1558       F  0.43446721  0.45888268  0.74231875    -0.15800
F1559       F  0.37512233  0.42345610  0.74604816    -0.19300
F1560       F  0.33428695  0.64004752  0.77010651    -0.22700
F1561       F  0.27714512  0.60412002  0.77804959    -0.24200
F1562       F  0.29061774  0.62060823  0.74574093    -0.18200
F1563       F  0.40991564  0.66881514  0.81405859    -0.20600
F1564       F  0.41280294  0.64758537  0.84640545    -0.21800
F1565       F  0.35953218  0.68621878  0.83559741    -0.19000
F1566       F  0.25728310  0.50257600  0.82304650    -0.19100
F1567       F  0.30756896  0.47725052  0.80353042    -0.22900
F1568       F  0.26261781  0.52330682  0.79069506    -0.24500
C1569       C  0.45609101  0.28678011  0.66129797    -0.11300
C1570       C  0.49057590  0.29692496  0.67280685     0.11300
C1571       C  0.49274335  0.33577946  0.68266390    -0.03100
C1572       C  0.45974087  0.36356904  0.68050168    -0.05900
C1573       C  0.42500263  0.35352823  0.66889652    -0.16600
C1574       C  0.42259535  0.31382535  0.65953105     0.02300
C1575       C  0.52460357  0.26653083  0.67342558     0.12200
C1576       C  0.52969169  0.34768800  0.69540395     0.62800
H1577       H  0.46108961  0.39370555  0.68766293     0.12200
C1578       C  0.38459389  0.29880632  0.64834998     0.55000
H1579       H  0.45573445  0.25711337  0.65364880     0.08000
C1580       C  0.52272555  0.22991090  0.68525313    -0.05800
C1581       C  0.55572115  0.20186749  0.68429909    -0.06500
C1582       C  0.59020145  0.20934458  0.67192046    -0.16100
C1583       C  0.59212125  0.24678084  0.66034885    -0.01700
C1584       C  0.55864396  0.27409771  0.66104004    -0.09200
C1585       C  0.48583691  0.22032283  0.69861378     0.65000
H1586       H  0.55441018  0.17336279  0.69299590     0.10500
C1587       C  0.62953791  0.25928606  0.64786359     0.63400
H1588       H  0.55865289  0.30198051  0.65183855     0.07900
F1589       F  0.38711967  0.25716722  0.64346834    -0.19600
F1590       F  0.37983168  0.32060840  0.63044353    -0.15800
F1591       F  0.35026015  0.30396764  0.66043220    -0.19300
F1592       F  0.56404659  0.35133907  0.68319342    -0.22700
F1593       F  0.53674300  0.31768027  0.71001153    -0.24200
F1594       F  0.52388027  0.38513022  0.70519604    -0.18200
F1595       F  0.63371161  0.23350794  0.63125643    -0.20600
F1596       F  0.66437578  0.25715971  0.65978714    -0.21800
F1597       F  0.62651390  0.29949613  0.64060265    -0.19000
F1598       F  0.49244329  0.18584433  0.71072512    -0.19100
F1599       F  0.45190711  0.21263637  0.68665001    -0.22900
F1600       F  0.47758267  0.25352386  0.71119516    -0.24500
C1601       C  0.95325871  0.52862492  0.50191874    -0.11300
C1602       C  0.99028356  0.55101369  0.50188284     0.11300
C1603       C  0.99461271  0.58556453  0.51486616    -0.03100
C1604       C  0.96253131  0.59500389  0.52841320    -0.05900
C1605       C  0.92574700  0.57209985  0.52888994    -0.16600
C1606       C  0.92067706  0.53867610  0.51521984     0.02300
C1607       C  0.02377704  0.53847715  0.48770680     0.12200
C1608       C  0.03257778  0.61294256  0.51403121     0.62800
H1609       H  0.96571031  0.62100824  0.53865984     0.12200
C1610       C  0.88157784  0.51325420  0.51500382     0.55000
H1611       H  0.95019313  0.50305393  0.49141970     0.08000
C1612       C  0.05174921  0.50619632  0.49233839    -0.05800
C1613       C  0.08342415  0.49716764  0.47838063    -0.06500
C1614       C  0.08661498  0.51791399  0.45963757    -0.16100
C1615       C  0.05897970  0.55076555  0.45528579    -0.01700
C1616       C  0.02794769  0.56030424  0.46941279    -0.09200
C1617       C  0.04754630  0.48095254  0.51173991     0.65000
H1618       H  0.10469847  0.47225629  0.48154067     0.10500
C1619       C  0.06235843  0.57621082  0.43593883     0.63400
H1620       H  0.00609866  0.58469376  0.46614074     0.07900
F1621       F  0.88456199  0.47964828  0.50207313    -0.19600
F1622       F  0.84938226  0.53773498  0.50850456    -0.15800
F1623       F  0.87323564  0.49842713  0.53430477    -0.19300
F1624       F  0.03395400  0.63350022  0.49559497    -0.22700
F1625       F  0.06765118  0.58924773  0.51613330    -0.24200
F1626       F  0.03252668  0.64237120  0.52927409    -0.18200
F1627       F  0.03944465  0.61225365  0.43709846    -0.20600
F1628       F  0.04817482  0.55349964  0.41964288    -0.21800
F1629       F  0.10281792  0.58732989  0.43259019    -0.19000
F1630       F  0.07724371  0.45044358  0.51313724    -0.19100
F1631       F  0.00962459  0.46175330  0.51230855    -0.22900
F1632       F  0.05126936  0.50657643  0.52841059    -0.24500
C1633       C  0.67940259  0.63806878  0.43747595    -0.11300
C1634       C  0.71722279  0.61981965  0.44239780     0.11300
C1635       C  0.73695205  0.59382196  0.42811145    -0.03100
C1636       C  0.71956038  0.58949663  0.40868861    -0.05900
C1637       C  0.68306783  0.60973970  0.40336575    -0.16600
C1638       C  0.66205590  0.63372111  0.41801464     0.02300
C1639       C  0.73565135  0.62885984  0.46257427     0.12200
C1640       C  0.77662401  0.57151300  0.43324775     0.62800
H1641       H  0.73541267  0.57180805  0.39714994     0.12200
C1642       C  0.62189482  0.65502402  0.41287538     0.55000
H1643       H  0.66428492  0.65690391  0.44882838     0.08000
C1644       C  0.75824604  0.66564289  0.46634092    -0.05800
C1645       C  0.77408849  0.67246940  0.48600122    -0.06500
C1646       C  0.76695756  0.64420027  0.50186149    -0.16100
C1647       C  0.74489822  0.60716856  0.49792362    -0.01700
C1648       C  0.72963770  0.60015712  0.47827702    -0.09200
C1649       C  0.76430757  0.69803156  0.44980547     0.65000
H1650       H  0.79047471  0.70082447  0.48938084     0.10500
C1651       C  0.73724517  0.57520785  0.51449186     0.63400
H1652       H  0.71199936  0.57248137  0.47508068     0.07900
F1653       F  0.60548378  0.67542555  0.42947358    -0.19600
F1654       F  0.59371361  0.62584441  0.40642877    -0.15800
F1655       F  0.62805911  0.68379940  0.39756859    -0.19300
F1656       F  0.76988435  0.54405082  0.44905097    -0.22700
F1657       F  0.80629056  0.59977970  0.43895286    -0.24200
F1658       F  0.79160789  0.54928838  0.41689159    -0.18200
F1659       F  0.72087587  0.53893839  0.50677769    -0.20600
F1660       F  0.70998613  0.59077430  0.52864063    -0.21800
F1661       F  0.77373945  0.56545951  0.52403046    -0.19000
F1662       F  0.78933603  0.73012318  0.45615897    -0.19100
F1663       F  0.72678330  0.71462316  0.44438963    -0.22900
F1664       F  0.78218604  0.68027015  0.43289076    -0.24500
C1665       C  0.83899574  0.53193402  0.67470835    -0.11300
C1666       C  0.83179751  0.56058644  0.69021055     0.11300
C1667       C  0.82315175  0.60242987  0.68522084    -0.03100
C1668       C  0.82331627  0.61442512  0.66460786    -0.05900
C1669       C  0.83325179  0.58626893  0.64913048    -0.16600
C1670       C  0.83968882  0.54391778  0.65416530     0.02300
C1671       C  0.83877132  0.54669718  0.71143881     0.12200
C1672       C  0.81565250  0.63456018  0.70163017     0.62800
H1673       H  0.81761600  0.64641481  0.66047539     0.12200
C1674       C  0.84700989  0.51124317  0.63801871     0.55000
H1675       H  0.84571799  0.50019070  0.67894326     0.08000
C1676       C  0.80807264  0.52699056  0.72328216    -0.05800
C1677       C  0.81753226  0.51564237  0.74339859    -0.06500
C1678       C  0.85716460  0.52050852  0.75125899    -0.16100
C1679       C  0.88847134  0.53770094  0.73897548    -0.01700
C1680       C  0.87850670  0.55124238  0.71929282    -0.09200
C1681       C  0.76633111  0.51642451  0.71448713     0.65000
H1682       H  0.79407741  0.50292863  0.75320724     0.10500
C1683       C  0.93242858  0.54015317  0.74644119     0.63400
H1684       H  0.90186239  0.56502634  0.70968356     0.07900
F1685       F  0.84517549  0.47152704  0.64601221    -0.19600
F1686       F  0.88540118  0.51666488  0.62946727    -0.15800
F1687       F  0.81739889  0.51429137  0.62307826    -0.19300
F1688       F  0.85066123  0.63929990  0.71319326    -0.22700
F1689       F  0.78379128  0.62220195  0.71412555    -0.24200
F1690       F  0.80553066  0.67279995  0.69347624    -0.18200
F1691       F  0.95859728  0.55586148  0.73173030    -0.20600
F1692       F  0.94583367  0.50085153  0.75162609    -0.21800
F1693       F  0.93480968  0.56552346  0.76326523    -0.19000
F1694       F  0.74034551  0.49955279  0.72897003    -0.19100
F1695       F  0.77112170  0.48776223  0.69911469    -0.22900
F1696       F  0.74772687  0.55142080  0.70668007    -0.24500
C1697       C  0.63367277  0.57431847  0.61662606    -0.11300
C1698       C  0.60129949  0.57407883  0.60270001     0.11300
C1699       C  0.60763771  0.58915963  0.58279231    -0.03100
C1700       C  0.64673158  0.60410647  0.57747444    -0.05900
C1701       C  0.67926330  0.60553805  0.59151998    -0.16600
C1702       C  0.67283244  0.58947907  0.61146903     0.02300
C1703       C  0.56022884  0.56142888  0.61019648     0.12200
C1704       C  0.57290043  0.59080958  0.56746412     0.62800
H1705       H  0.65172873  0.61633247  0.56234403     0.12200
C1706       C  0.70607787  0.58936720  0.62763048     0.55000
H1707       H  0.62747556  0.56334060  0.63188265     0.08000
C1708       C  0.54945599  0.51938489  0.61346913    -0.05800
C1709       C  0.51114038  0.51038893  0.62235875    -0.06500
C1710       C  0.48427140  0.54205239  0.62831683    -0.16100
C1711       C  0.49468840  0.58398371  0.62463082    -0.01700
C1712       C  0.53282914  0.59294672  0.61569516    -0.09200
C1713       C  0.57855615  0.48437213  0.60796884     0.65000
H1714       H  0.50264528  0.47859373  0.62563640     0.10500
C1715       C  0.46552756  0.61901144  0.63000594     0.63400
H1716       H  0.54214474  0.62484705  0.61337932     0.07900
F1717       F  0.69186896  0.57432031  0.64607341    -0.19600
F1718       F  0.72017763  0.62925071  0.63079632    -0.15800
F1719       F  0.73809479  0.56420367  0.62153487    -0.19300
F1720       F  0.54344653  0.61875872  0.57378802    -0.22700
F1721       F  0.55514071  0.55211136  0.56557839    -0.24200
F1722       F  0.58651425  0.60314774  0.54846095    -0.18200
F1723       F  0.45899460  0.62010720  0.65073001    -0.20600
F1724       F  0.42844386  0.61299372  0.62027762    -0.21800
F1725       F  0.48086933  0.65723983  0.62410651    -0.19000
F1726       F  0.56159468  0.44588074  0.61205792    -0.19100
F1727       F  0.61442717  0.48764288  0.61899707    -0.22900
F1728       F  0.58781726  0.48618585  0.58750335    -0.24500
C1729       C  0.75980125  0.81966345  0.63713417    -0.11300
C1730       C  0.71978800  0.83487412  0.63467504     0.11300
C1731       C  0.69099691  0.81196469  0.62319148    -0.03100
C1732       C  0.70412854  0.77576171  0.61338668    -0.05900
C1733       C  0.74458918  0.76134213  0.61503194    -0.16600
C1734       C  0.77260571  0.78251588  0.62781311     0.02300
C1735       C  0.70937031  0.87660421  0.64260756     0.12200
C1736       C  0.64674720  0.82616458  0.62091750     0.62800
H1737       H  0.68302983  0.75888674  0.60377400     0.12200
C1738       C  0.81601531  0.76688461  0.63107417     0.55000
H1739       H  0.78122247  0.83777899  0.64598447     0.08000
C1740       C  0.69686694  0.88333043  0.66286827    -0.05800
C1741       C  0.68080956  0.92241913  0.66810768    -0.06500
C1742       C  0.67738522  0.95481546  0.65377538    -0.16100
C1743       C  0.69281193  0.94851331  0.63376187    -0.01700
C1744       C  0.70906811  0.90951685  0.62873388    -0.09200
C1745       C  0.70014537  0.84919066  0.67870306     0.65000
H1746       H  0.66996831  0.92768343  0.68343405     0.10500
C1747       C  0.69050447  0.98160699  0.61731978     0.63400
H1748       H  0.71993074  0.90353150  0.61347029     0.07900
F1749       F  0.83818089  0.79267670  0.64375166    -0.19600
F1750       F  0.83644056  0.76458160  0.61268527    -0.15800
F1751       F  0.81481164  0.72802160  0.63996229    -0.19300
F1752       F  0.64521464  0.86284947  0.61007061    -0.22700
F1753       F  0.62938818  0.83223196  0.63983679    -0.24200
F1754       F  0.62313254  0.79719628  0.61078591    -0.18200
F1755       F  0.71497021  0.01487099  0.62257986    -0.20600
F1756       F  0.65031089  0.99446546  0.61489157    -0.21800
F1757       F  0.70415134  0.96724815  0.59871363    -0.19000
F1758       F  0.68575828  0.86187792  0.69746682    -0.19100
F1759       F  0.74075100  0.83770597  0.68090339    -0.22900
F1760       F  0.67758457  0.81502619  0.67278085    -0.24500
C1761       C  0.98827579  0.02471888  0.47093860    -0.11300
C1762       C  0.98738563  0.04013775  0.49078188     0.11300
C1763       C  0.95405124  0.06549695  0.49695790    -0.03100
C1764       C  0.92296511  0.07504154  0.48274480    -0.05900
C1765       C  0.92434202  0.06009272  0.46272568    -0.16600
C1766       C  0.95690496  0.03337306  0.45692944     0.02300
C1767       C  0.02143026  0.02795668  0.50474684     0.12200
C1768       C  0.95138752  0.08241407  0.51841527     0.62800
H1769       H  0.89806345  0.09551643  0.48695412     0.12200
C1770       C  0.95881473  0.01372943  0.43603257     0.55000
H1771       H  0.01414540  0.00578881  0.46641338     0.08000
C1772       C  0.02358769  0.98760752  0.51326519    -0.05800
C1773       C  0.05636033  0.97790512  0.52626893    -0.06500
C1774       C  0.08666541  0.00704483  0.53115931    -0.16100
C1775       C  0.08473425  0.04733852  0.52276092    -0.01700
C1776       C  0.05255426  0.05686109  0.50916983    -0.09200
C1777       C  0.99122423  0.95493255  0.50885401     0.65000
H1778       H  0.05839730  0.94730277  0.53301891     0.10500
C1779       C  0.11481589  0.08057996  0.52927215     0.63400
H1780       H  0.05074134  0.08736598  0.50233545     0.07900
F1781       F  0.92036461  0.99974718  0.43036662    -0.19600
F1782       F  0.98514883  0.98008226  0.43575453    -0.15800
F1783       F  0.97275027  0.04245447  0.42201129    -0.19300
F1784       F  0.98461971  0.10778206  0.52228979    -0.22700
F1785       F  0.95119018  0.05003179  0.53220795    -0.24200
F1786       F  0.91609261  0.10549187  0.52138655    -0.18200
F1787       F  0.15460869  0.06762718  0.52578652    -0.20600
F1788       F  0.10979542  0.08824607  0.54978209    -0.21800
F1789       F  0.10881958  0.11733174  0.51880621    -0.19000
F1790       F  0.99674306  0.91961176  0.52052418    -0.19100
F1791       F  0.99319977  0.94350007  0.48868199    -0.22900
F1792       F  0.95259172  0.97042126  0.51302764    -0.24500
C1793       C  0.19787675  0.00530302  0.68021614    -0.11300
C1794       C  0.16253037  0.99337669  0.69084821     0.11300
C1795       C  0.13237548  0.96858350  0.68135221    -0.03100
C1796       C  0.13876957  0.95677408  0.66110176    -0.05900
C1797       C  0.17386912  0.96932219  0.65030136    -0.16600
C1798       C  0.20411289  0.99372619  0.65993423     0.02300
C1799       C  0.15705070  0.00954150  0.71157395     0.12200
C1800       C  0.09332393  0.95556314  0.69236712     0.62800
H1801       H  0.11570968  0.93870552  0.65326626     0.12200
C1802       C  0.24179209  0.00891424  0.64861576     0.55000
H1803       H  0.22008594  0.02472983  0.68786165     0.08000
C1804       C  0.17779250  0.99215150  0.72835592    -0.05800
C1805       C  0.17182653  0.01008465  0.74747244    -0.06500
C1806       C  0.14480169  0.04348940  0.75031747    -0.16100
C1807       C  0.12263442  0.05959195  0.73361515    -0.01700
C1808       C  0.13064314  0.04335744  0.71426109    -0.09200
C1809       C  0.20576117  0.95474331  0.72613635     0.65000
H1810       H  0.18797981  0.99774344  0.76051450     0.10500
C1811       C  0.08839809  0.09094852  0.73633971     0.63400
H1812       H  0.11525018  0.05597258  0.70106199     0.07900
F1813       F  0.26580044  0.03464235  0.66047414    -0.19600
F1814       F  0.23009920  0.03088455  0.63151928    -0.15800
F1815       F  0.26538147  0.97538538  0.64290335    -0.19300
F1816       F  0.06955295  0.98997543  0.69650925    -0.22700
F1817       F  0.10292634  0.93588546  0.71041039    -0.24200
F1818       F  0.06998381  0.92855428  0.68087530    -0.18200
F1819       F  0.06875360  0.09964565  0.71820051    -0.20600
F1820       F  0.10380934  0.12761446  0.74382458    -0.21800
F1821       F  0.05953004  0.07532960  0.74975912    -0.19000
F1822       F  0.21855800  0.93977616  0.74480346    -0.19100
F1823       F  0.24015353  0.96550489  0.71500724    -0.22900
F1824       F  0.18535641  0.92303776  0.71632490    -0.24500
C1825       C  0.31914545  0.96251175  0.43355676    -0.11300
C1826       C  0.28042629  0.94462111  0.43692978     0.11300
C1827       C  0.25618032  0.93263619  0.42018607    -0.03100
C1828       C  0.27318079  0.93543456  0.40060937    -0.05900
C1829       C  0.31279706  0.95139023  0.39713838    -0.16600
C1830       C  0.33571706  0.96664347  0.41382947     0.02300
C1831       C  0.26659436  0.93740879  0.45819751     0.12200
C1832       C  0.21235266  0.91751573  0.42298100     0.62800
H1833       H  0.25530274  0.92536609  0.38769070     0.12200
C1834       C  0.37759925  0.98631866  0.41097601     0.55000
H1835       H  0.33656980  0.97256188  0.44662927     0.08000
C1836       C  0.27803424  0.90132378  0.46907189    -0.05800
C1837       C  0.26358194  0.89602625  0.48907222    -0.06500
C1838       C  0.23831339  0.92553983  0.49850793    -0.16100
C1839       C  0.22762396  0.96209181  0.48769755    -0.01700
C1840       C  0.24188012  0.96727075  0.46761190    -0.09200
C1841       C  0.30590593  0.86887307  0.45964434     0.65000
H1842       H  0.27248205  0.86887386  0.49770766     0.10500
C1843       C  0.20243729  0.99603105  0.49747737     0.63400
H1844       H  0.23398604  0.99483087  0.45904961     0.07900
F1845       F  0.39541822  0.99686002  0.42930773    -0.19600
F1846       F  0.37368816  0.02215220  0.39962950    -0.15800
F1847       F  0.40353716  0.95905948  0.40110170    -0.19300
F1848       F  0.18891202  0.94879625  0.43137694    -0.22700
F1849       F  0.21136398  0.88340897  0.43570976    -0.24200
F1850       F  0.19460460  0.90631566  0.40472167    -0.18200
F1851       F  0.19951021  0.03079446  0.48518864    -0.20600
F1852       F  0.22044305  0.00794726  0.51554545    -0.21800
F1853       F  0.16322474  0.98148985  0.50110405    -0.19000
F1854       F  0.31262894  0.83582224  0.47266240    -0.19100
F1855       F  0.34350742  0.88635806  0.45497971    -0.22900
F1856       F  0.28846280  0.85358933  0.44208677    -0.24500
C1857       C  0.96102741  0.77117198  0.55930412    -0.11300
C1858       C  0.99571653  0.76511404  0.57145611     0.11300
C1859       C  0.99688362  0.73132652  0.58514911    -0.03100
C1860       C  0.96433054  0.70281081  0.58504188    -0.05900
C1861       C  0.92961920  0.70796047  0.57256107    -0.16600
C1862       C  0.92731164  0.74378469  0.55988670     0.02300
C1863       C  0.02740641  0.79815475  0.57168738     0.12200
C1864       C  0.03213564  0.72558024  0.59999021     0.62800
H1865       H  0.96596813  0.67593395  0.59487153     0.12200
C1866       C  0.88899449  0.75511664  0.54803251     0.55000
H1867       H  0.96019286  0.79853399  0.54974693     0.08000
C1868       C  0.05928146  0.80111825  0.55716190    -0.05800
C1869       C  0.08747170  0.83420674  0.55860773    -0.06500
C1870       C  0.08429509  0.86445530  0.57392718    -0.16100
C1871       C  0.05181930  0.86093024  0.58854222    -0.01700
C1872       C  0.02385823  0.82810330  0.58677743    -0.09200
C1873       C  0.06252911  0.77026847  0.53989279     0.65000
H1874       H  0.11192704  0.83695468  0.54753699     0.10500
C1875       C  0.04521165  0.89151304  0.60586107     0.63400
H1876       H  0.99849798  0.82519322  0.59734267     0.07900
F1877       F  0.89191090  0.79415300  0.53934238    -0.19600
F1878       F  0.85565696  0.75567267  0.56096882    -0.15800
F1879       F  0.88248512  0.72701798  0.53258902    -0.19300
F1880       F  0.03420105  0.75896244  0.61304178    -0.22700
F1881       F  0.06873895  0.72240343  0.58949807    -0.24200
F1882       F  0.02740344  0.69020286  0.61171777    -0.18200
F1883       F  0.01040526  0.88249255  0.61713874    -0.20600
F1884       F  0.04048272  0.93114759  0.59814852    -0.21800
F1885       F  0.07815226  0.89018365  0.61907011    -0.19000
F1886       F  0.09745943  0.77669973  0.52830042    -0.19100
F1887       F  0.02876258  0.77423122  0.52737519    -0.22900
F1888       F  0.06388309  0.73028652  0.54746373    -0.24500
C1889       C  0.39634902  0.00172282  0.58514581    -0.11300
C1890       C  0.40718136  0.99452429  0.60544913     0.11300
C1891       C  0.37921678  0.97426179  0.61863974    -0.03100
C1892       C  0.34193322  0.95988001  0.61067462    -0.05900
C1893       C  0.33165267  0.96540080  0.59018341    -0.16600
C1894       C  0.35888249  0.98730044  0.57715567     0.02300
C1895       C  0.44813383  0.00829390  0.61258671     0.12200
C1896       C  0.38856971  0.96785840  0.64104172     0.62800
H1897       H  0.32094626  0.94273777  0.62030292     0.12200
C1898       C  0.34825830  0.99614135  0.55512327     0.55000
H1899       H  0.41798526  0.01805464  0.57551237     0.08000
C1900       C  0.48358141  0.98320935  0.61041202    -0.05800
C1901       C  0.52044533  0.99625472  0.61956832    -0.06500
C1902       C  0.52216190  0.03273037  0.63105253    -0.16100
C1903       C  0.48707983  0.05838128  0.63259893    -0.01700
C1904       C  0.45071370  0.04609589  0.62289405    -0.09200
C1905       C  0.48184058  0.94206529  0.59926866     0.65000
H1906       H  0.54757185  0.97693477  0.61882912     0.10500
C1907       C  0.48774068  0.09761677  0.64526645     0.63400
H1908       H  0.42325394  0.06479355  0.62421233     0.07900
F1909       F  0.37702393  0.02172481  0.54595686    -0.19600
F1910       F  0.31052016  0.01560347  0.55407687    -0.15800
F1911       F  0.34683182  0.95965241  0.54423005    -0.19300
F1912       F  0.38959256  0.00579911  0.65069923    -0.22700
F1913       F  0.42604460  0.94848574  0.64346808    -0.24200
F1914       F  0.35913463  0.94355342  0.65051368    -0.18200
F1915       F  0.51922685  0.12319457  0.63875386    -0.20600
F1916       F  0.49382413  0.08758511  0.66546152    -0.21800
F1917       F  0.45128828  0.11940954  0.64380050    -0.19000
F1918       F  0.51951473  0.92227820  0.59917034    -0.19100
F1919       F  0.47012561  0.94849381  0.57935559    -0.22900
F1920       F  0.45376527  0.91598880  0.60853698    -0.24500
C1921       C  0.25295628  0.74856366  0.63333955    -0.11300
C1922       C  0.29199994  0.73168955  0.62995528     0.11300
C1923       C  0.32042880  0.75332579  0.61755665    -0.03100
C1924       C  0.30789899  0.79026955  0.60803546    -0.05900
C1925       C  0.26829289  0.80656430  0.61072359    -0.16600
C1926       C  0.24067515  0.78622064  0.62425238     0.02300
C1927       C  0.30127986  0.68959840  0.63805074     0.12200
C1928       C  0.36353764  0.73690708  0.61396270     0.62800
H1929       H  0.32884263  0.80637698  0.59794605     0.12200
C1930       C  0.19798355  0.80302036  0.62859073     0.55000
H1931       H  0.23180182  0.73133639  0.64285219     0.08000
C1932       C  0.31537279  0.68275522  0.65803456    -0.05800
C1933       C  0.32877178  0.64271569  0.66344413    -0.06500
C1934       C  0.32773113  0.60916519  0.64970848    -0.16100
C1935       C  0.30914443  0.61552784  0.63036887    -0.01700
C1936       C  0.29654550  0.65585624  0.62493937    -0.09200
C1937       C  0.31668946  0.71767043  0.67344911     0.65000
H1938       H  0.34127170  0.63765160  0.67845748     0.10500
C1939       C  0.30338401  0.58079631  0.61514499     0.63400
H1940       H  0.28406751  0.66187910  0.60999347     0.07900
F1941       F  0.20093437  0.84111004  0.63805247    -0.19600
F1942       F  0.17580006  0.77703649  0.64129092    -0.15800
F1943       F  0.17636087  0.80725848  0.61065724    -0.19300
F1944       F  0.36177463  0.70008593  0.60334756    -0.22700
F1945       F  0.38293507  0.73006482  0.63230086    -0.24200
F1946       F  0.38725010  0.76456078  0.60289590    -0.18200
F1947       F  0.28354169  0.59414390  0.59774509    -0.20600
F1948       F  0.27968893  0.54975434  0.62373121    -0.21800
F1949       F  0.34115260  0.56519671  0.60941634    -0.19000
F1950       F  0.33044860  0.70412253  0.69219905    -0.19100
F1951       F  0.27778811  0.73384724  0.67606795    -0.22900
F1952       F  0.34262474  0.74878020  0.66678386    -0.24500
loop_ 
_geom_bond_atom_site_label_1 
_geom_bond_atom_site_label_2 
_geom_bond_distance 
_geom_bond_site_symmetry_2 
_ccdc_geom_bond_type 
O1           Ni7   1.932       .  S
O1           C22   1.275       .  A
O2          Ni25   1.909       .  S
O2           C11   1.268       .  A
O3           Ni7   1.893       .  S
O3          Ni25   1.891       .  S
O3          Ni19   1.899       .  S
O3           H26   0.965       .  S
C4           O21   1.267       .  A
C4           O13   1.266       .  A
C4         C1774   1.478   1_565  S
O5          Ni24   1.909       .  S
O5           C11   1.267       .  A
O6          Ni24   1.890       .  S
O6            C8   1.267       .  A
Ni7          O10   1.932       .  S
Ni7          O12   1.904       .  S
C8           O18   1.290       .  A
C8         C1870   1.497       .  S
O9          Ni25   1.922       .  S
O9           C15   1.276       .  A
O10          C15   1.281       .  A
C11        C1797   1.470       .  S
O12          C14   1.266       .  A
O13         Ni24   1.926       .  S
C14          O20   1.274       .  A
C14        C1893   1.480       .  S
C15        C1925   1.490       .  S
H16          O17   0.967       .  S
O17         Ni25   1.940       .  S
O17         Ni19   1.915       .  S
O17         Ni24   1.911       .  S
O18         Ni19   1.978       .  S
Ni19         O23   1.921       .  S
Ni19         O21   1.919       .  S
O20         Ni25   1.930       .  S
C22          O23   1.276       .  A
C22        C1838   1.488       .  S
O27         Ni33   1.927       .  S
O27          C48   1.274       .  A
O28         Ni51   1.905       .  S
O28          C37   1.267       .  A
O29         Ni33   1.883       .  S
O29         Ni51   1.880       .  S
O29         Ni45   1.897       .  S
O29          H52   0.964       .  S
C30          O47   1.272       .  A
C30          O39   1.272       .  A
C30        C1605   1.490       .  S
O31         Ni50   1.935       .  S
O31          C37   1.273       .  A
O32         Ni50   1.912       .  S
O32          C34   1.280       .  A
Ni33         O36   1.918       .  S
Ni33         O38   1.908       .  S
C34          O44   1.285       .  A
C34        C1861   1.496       .  S
O35         Ni51   1.935       .  S
O35          C41   1.280       .  A
O36          C41   1.279       .  A
C37        C1669   1.486       .  S
O38          C40   1.271       .  A
O39         Ni50   1.936       .  S
C40          O46   1.271       .  A
C40        C1701   1.492       .  S
C41        C1733   1.483       .  S
H42          O43   0.967       .  S
O43         Ni51   1.942       .  S
O43         Ni45   1.914       .  S
O43         Ni50   1.905       .  S
O44         Ni45   1.967       .  S
Ni45         O49   1.921       .  S
Ni45         O47   1.924       .  S
O46         Ni51   1.927       .  S
C48          O49   1.276       .  A
C48        C1646   1.482       .  S
O53         Ni59   1.933       .  S
O53          C74   1.273       .  A
O54         Ni77   1.921       .  S
O54          C63   1.273       .  A
O55         Ni59   1.912       .  S
O55         Ni77   1.918       .  S
O55         Ni71   1.938       .  S
O55          H78   0.966       .  S
C56          O73   1.282       .  A
C56          O65   1.277       .  A
C56        C1710   1.471       .  S
O57         Ni76   1.927       .  S
O57          C63   1.275       .  A
O58         Ni76   1.907       .  S
O58          C60   1.270       .  A
Ni59         O62   1.943       .  S
Ni59         O64   1.899       .  S
C60          O70   1.274       .  A
C60        C1934   1.503       .  S
O61         Ni77   1.908       .  S
O61          C67   1.266       .  A
O62          C67   1.274       .  A
C63        C1541   1.494       .  S
O64          C66   1.271       .  A
O65         Ni76   1.913       .  S
C66          O72   1.286       .  A
C66        C1573   1.485       .  S
C67        C1477   1.487       .  S
H68          O69   0.966       .  S
O69         Ni77   1.893       .  S
O69         Ni71   1.889       .  S
O69         Ni76   1.886       .  S
O70         Ni71   1.939       .  S
Ni71         O75   1.918       .  S
Ni71         O73   1.934       .  S
O72         Ni77   1.966       .  S
C74          O75   1.272       .  A
C74        C1509   1.483       .  S
O79         Ni85   1.915       .  S
O79         C100   1.269       .  A
O80        Ni103   1.906       .  S
O80          C89   1.271       .  A
O81         Ni85   1.905       .  S
O81        Ni103   1.905       .  S
O81         Ni97   1.942       .  S
O81         H104   0.966       .  S
C82          O99   1.282       .  A
C82          O91   1.277       .  A
C82        C1902   1.473       .  S
O83        Ni102   1.922       .  S
O83          C89   1.275       .  A
O84        Ni102   1.911   1_565  S
O84          C86   1.269       .  A
Ni85         O88   1.927       .  S
Ni85         O90   1.899       .  S
C86          O96   1.269   1_565  A
C86        C1742   1.493       .  S
O87        Ni103   1.914       .  S
O87          C93   1.266       .  A
O88          C93   1.268       .  A
C89        C1454   1.495       .  S
O90          C92   1.273       .  A
O91        Ni102   1.915       .  S
C92          O98   1.288       .  A
C92        C1582   1.489       .  S
C93        C1390   1.472       .  S
H94          O95   0.966       .  S
O95        Ni103   1.894       .  S
O95         Ni97   1.882       .  S
O95        Ni102   1.890       .  S
O96         Ni97   1.923       .  S
Ni97        O101   1.907       .  S
Ni97         O99   1.939       .  S
O98        Ni103   1.967       .  S
C100        O101   1.270       .  A
C100       C1422   1.475       .  S
O105       Ni111   1.919       .  S
O105        C126   1.270       .  A
O106       Ni129   1.907       .  S
O106        C115   1.271       .  A
O107       Ni111   1.911       .  S
O107       Ni129   1.910       .  S
O107       Ni123   1.945       .  S
O107        H130   0.970       .  S
C108        O125   1.283       .  A
C108        O117   1.278       .  A
C108       C1358   1.478       .  S
O109       Ni128   1.925       .  S
O109        C115   1.277       .  A
O110       Ni128   1.908       .  S
O110        C112   1.269       .  A
Ni111       O114   1.937       .  S
Ni111       O116   1.904       .  S
C112        O122   1.274       .  A
C112       C1326   1.490       .  S
O113       Ni129   1.923       .  S
O113        C119   1.270       .  A
O114        C119   1.271       .  A
C115       C1253   1.490       .  S
O116        C118   1.276       .  A
O117       Ni128   1.921       .  S
C118        O124   1.282       .  A
C118       C1285   1.502       .  S
C119       C1221   1.488   1_565  S
H120        O121   0.980       .  S
O121       Ni129   1.897       .  S
O121       Ni123   1.879       .  S
O121       Ni128   1.884       .  S
O122       Ni123   1.938       .  S
Ni123       O127   1.908       .  S
Ni123       O125   1.937       .  S
O124       Ni129   1.960       .  S
C126        O127   1.269       .  A
C126       C1445   1.480       .  S
O131       Ni137   1.929       .  S
O131        C152   1.273       .  A
O132       Ni155   1.916       .  S
O132        C141   1.273       .  A
O133       Ni137   1.915       .  S
O133       Ni155   1.915       .  S
O133       Ni149   1.941       .  S
O133        H156   0.967       .  S
C134        O151   1.284       .  A
C134        O143   1.277       .  A
C134       C1189   1.480       .  S
O135       Ni154   1.926       .  S
O135        C141   1.273       .  A
O136       Ni154   1.906       .  S
O136        C138   1.269       .  A
Ni137       O140   1.939       .  S
Ni137       O142   1.905       .  S
C138        O148   1.274       .  A
C138       C1157   1.503       .  S
O139       Ni155   1.914       .  S
O139        C145   1.268       .  A
O140        C145   1.272       .  A
C141       C1125   1.483       .  S
O142        C144   1.275       .  A
O143       Ni154   1.918       .  S
C144        O150   1.284       .  A
C144       C1294   1.479       .  S
C145       C1093   1.484       .  S
H146        O147   0.951       .  S
O147       Ni155   1.896       .  S
O147       Ni149   1.886       .  S
O147       Ni154   1.889       .  S
O148       Ni149   1.940       .  S
Ni149       O153   1.919       .  S
Ni149       O151   1.942       .  S
O150       Ni155   1.964       .  S
C152        O153   1.272       .  A
C152       C1550   1.482       .  S
O157       Ni163   1.912       .  S
O157        C178   1.270       .  A
O158       Ni181   1.916       .  S
O158        C167   1.271       .  A
O159       Ni163   1.886       .  S
O159       Ni181   1.883       .  S
O159       Ni175   1.899       .  S
O159        H182   0.966       .  S
C160        O177   1.273       .  A
C160        O169   1.270       .  A
C160       C1486   1.491       .  S
O161       Ni180   1.917       .  S
O161        C167   1.268       .  A
O162       Ni180   1.898       .  S
O162        C164   1.270       .  A
Ni163       O166   1.907       .  S
Ni163       O168   1.908   1_545  S
C164        O174   1.279       .  A
C164       C1061   1.467       .  S
O165       Ni181   1.948       .  S
O165        C171   1.285       .  A
O166        C171   1.278       .  A
C167       C1029   1.478       .  S
O168        C170   1.268       .  A
O169       Ni180   1.926       .  S
C170        O176   1.272   1_565  A
C170       C1198   1.503       .  S
C171       C1317   1.504       .  S
H172        O173   0.966       .  S
O173       Ni181   1.938       .  S
O173       Ni175   1.916       .  S
O173       Ni180   1.909       .  S
O174       Ni175   1.953       .  S
Ni175       O179   1.915       .  S
Ni175       O177   1.923       .  S
O176       Ni181   1.936       .  S
C178        O179   1.272       .  A
C178       C1806   1.471       .  S
O183       Ni189   1.925       .  S
O183        C204   1.272       .  A
O184       Ni207   1.906       .  S
O184        C193   1.269       .  A
O185       Ni189   1.889       .  S
O185       Ni207   1.886       .  S
O185       Ni201   1.904       .  S
O185        H208   0.966       .  S
C186        O203   1.274       .  A
C186        O195   1.275       .  A
C186       C1381   1.506       .  S
O187       Ni206   1.936       .  S
O187        C193   1.273       .  A
O188       Ni206   1.910       .  S
O188        C190   1.275       .  A
Ni189       O192   1.918       .  S
Ni189       O194   1.907       .  S
C190        O200   1.278       .  A
C190       C1070   1.487       .  S
O191       Ni207   1.937       .  S
O191        C197   1.281       .  A
O192        C197   1.278       .  A
C193        C997   1.485       .  S
O194        C196   1.266       .  A
O195       Ni206   1.930       .  S
C196        O202   1.274       .  A
C196       C1349   1.488       .  S
C197       C1166   1.483       .  S
H198        O199   0.966       .  S
O199       Ni207   1.926       .  S
O199       Ni201   1.914       .  S
O199       Ni206   1.907       .  S
O200       Ni201   1.951       .  S
Ni201       O205   1.912       .  S
Ni201       O203   1.925       .  S
O202       Ni207   1.933       .  S
C204        O205   1.273       .  A
C204       C1678   1.474       .  S
O209       Ni215   1.931       .  S
O209        C230   1.275       .  A
O210       Ni233   1.912       .  S
O210        C219   1.271       .  A
O211       Ni215   1.887       .  S
O211       Ni233   1.881       .  S
O211       Ni227   1.901       .  S
O211        H234   0.965       .  S
C212        O229   1.273       .  A
C212        O221   1.271       .  A
C212       C1102   1.510       .  S
O213       Ni232   1.920       .  S
O213        C219   1.270       .  A
O214       Ni232   1.899       .  S
O214        C216   1.272       .  A
Ni215       O218   1.922       .  S
Ni215       O220   1.913       .  S
C216        O226   1.286       .  A
C216        C901   1.482       .  S
O217       Ni233   1.943       .  S
O217        C223   1.284       .  A
O218        C223   1.281       .  A
C219        C869   1.474       .  S
O220        C222   1.268       .  A
O221       Ni232   1.927       .  S
C222        O228   1.274       .  A
C222        C942   1.482       .  S
C223        C974   1.491       .  S
H224        O225   0.967       .  S
O225       Ni233   1.945       .  S
O225       Ni227   1.915       .  S
O225       Ni232   1.907       .  S
O226       Ni227   1.964       .  S
Ni227       O231   1.911       .  S
Ni227       O229   1.934       .  S
O228       Ni233   1.937       .  S
C230        O231   1.274       .  A
C230       C1006   1.481       .  S
O235       Ni241   1.935       .  S
O235        C256   1.273       .  A
O236       Ni259   1.920       .  S
O236        C245   1.274       .  A
O237       Ni241   1.910       .  S
O237       Ni259   1.918       .  S
O237       Ni253   1.933       .  S
O237        H260   0.966       .  S
C238        O255   1.285       .  A
C238        O247   1.277       .  A
C238        C933   1.492       .  S
O239       Ni258   1.920       .  S
O239        C245   1.270       .  A
O240       Ni258   1.909       .  S
O240        C242   1.269       .  A
Ni241       O244   1.927       .  S
Ni241       O246   1.907       .  S
C242        O252   1.270       .  A
C242        C837   1.497       .  S
O243       Ni259   1.925       .  S
O243        C249   1.275       .  A
O244        C249   1.273       .  A
C245        C782   1.482       .  S
O246        C248   1.273       .  A
O247       Ni258   1.908       .  S
C248        O254   1.278       .  A
C248        C805   1.476       .  S
C249        C750   1.490       .  S
H250        O251   0.966       .  S
O251       Ni259   1.908       .  S
O251       Ni253   1.894       .  S
O251       Ni258   1.892       .  S
O252       Ni253   1.930       .  S
Ni253       O257   1.912       .  S
Ni253       O255   1.955       .  S
O254       Ni259   1.944       .  S
C256        O257   1.270       .  A
C256       C1134   1.492       .  S
O261       Ni267   1.921       .  S
O261        C282   1.272       .  A
O262       Ni285   1.903       .  S
O262        C271   1.266       .  A
O263       Ni267   1.889       .  S
O263       Ni285   1.882       .  S
O263       Ni279   1.900       .  S
O263        H286   0.966       .  S
C264        O281   1.273       .  A
C264        O273   1.274       .  A
C264       C1230   1.513       .  S
O265       Ni284   1.930       .  S
O265        C271   1.273       .  A
O266       Ni284   1.904       .  S
O266        C268   1.276       .  A
Ni267       O270   1.915       .  S
Ni267       O272   1.911       .  S
C268        O278   1.281       .  A
C268        C910   1.500       .  S
O269       Ni285   1.931       .  S
O269        C275   1.280       .  A
O270        C275   1.278       .  A
C271        C677   1.476       .  S
O272        C274   1.267       .  A
O273       Ni284   1.937       .  S
C274        O280   1.273       .  A
C274        C718   1.486       .  S
C275        C846   1.478       .  S
H276        O277   0.967       .  S
O277       Ni285   1.940       .  S
O277       Ni279   1.916       .  S
O277       Ni284   1.912       .  S
O278       Ni279   1.955       .  S
Ni279       O283   1.917       .  S
Ni279       O281   1.928       .  S
O280       Ni285   1.932       .  S
C282        O283   1.274       .  A
C282       C1038   1.474   1_554  S
O287       Ni293   1.929       .  S
O287        C308   1.273       .  A
O288       Ni311   1.918       .  S
O288        C297   1.275   1_565  A
O289       Ni293   1.911       .  S
O289       Ni311   1.913       .  S
O289       Ni305   1.941       .  S
O289        H312   0.966       .  S
C290        O307   1.286       .  A
C290        O299   1.276       .  A
C290        C709   1.483       .  S
O291       Ni310   1.914       .  S
O291        C297   1.269       .  A
O292       Ni310   1.910       .  S
O292        C294   1.269       .  A
Ni293       O296   1.938       .  S
Ni293       O298   1.903       .  S
C294        O304   1.273       .  A
C294        C965   1.501       .  S
O295       Ni311   1.919       .  S
O295        C301   1.272       .  A
O296        C301   1.272       .  A
C297        C645   1.474       .  S
O298        C300   1.271       .  A
O299       Ni310   1.913       .  S
C300        O306   1.283       .  A
C300        C814   1.493       .  S
C301        C613   1.483       .  S
H302        O303   0.965       .  S
O303       Ni311   1.902       .  S
O303       Ni305   1.879       .  S
O303       Ni310   1.883   1_565  S
O304       Ni305   1.935   1_545  S
Ni305       O309   1.909       .  S
Ni305       O307   1.952   1_565  S
O306       Ni311   1.951       .  S
C308        O309   1.270       .  A
C308       C1262   1.480       .  S
O313       Ni319   1.919       .  S
O313        C334   1.273       .  A
O314       Ni337   1.900       .  S
O314        C323   1.270       .  A
O315       Ni319   1.910       .  S
O315       Ni337   1.910       .  S
O315       Ni331   1.940       .  S
O315        H338   0.967       .  S
C316        O333   1.282       .  A
C316        O325   1.279       .  A
C316        C558   1.485       .  S
O317       Ni336   1.930       .  S
O317        C323   1.274       .  A
O318       Ni336   1.908       .  S
O318        C320   1.267       .  A
Ni319       O322   1.933       .  S
Ni319       O324   1.902       .  S
C320        O330   1.273       .  A
C320        C590   1.481       .  S
O321       Ni337   1.921       .  S
O321        C327   1.271       .  A
O322        C327   1.270       .  A
C323       C1413   1.463       .  S
O324        C326   1.272       .  A
O325       Ni336   1.924       .  S
C326        O332   1.281       .  A
C326        C526   1.471       .  S
C327       C1765   1.490       .  S
H328        O329   0.964       .  S
O329       Ni337   1.898       .  S
O329       Ni331   1.880       .  S
O329       Ni336   1.883       .  S
O330       Ni331   1.933       .  S
Ni331       O335   1.902       .  S
Ni331       O333   1.932       .  S
O332       Ni337   1.956       .  S
C334        O335   1.266       .  A
C334        C654   1.486       .  S
O339       Ni345   1.930       .  S
O339        C360   1.273       .  A
O340       Ni363   1.917       .  S
O340        C349   1.272       .  A
O341       Ni345   1.914       .  S
O341       Ni363   1.919       .  S
O341       Ni357   1.937       .  S
O341        H364   0.967       .  S
C342        O359   1.283       .  A
C342        O351   1.277       .  A
C342        C494   1.476       .  S
O343       Ni362   1.926       .  S
O343        C349   1.274       .  A
O344       Ni362   1.904       .  S
O344        C346   1.266       .  A
Ni345       O348   1.934       .  S
Ni345       O350   1.911       .  S
C346        O356   1.275       .  A
C346        C453   1.486       .  S
O347       Ni363   1.920       .  S
O347        C353   1.273       .  A
O348        C353   1.272       .  A
C349       C1518   1.485       .  S
O350        C352   1.274       .  A
O351       Ni362   1.917       .  S
C352        O358   1.279       .  A
C352        C517   1.479       .  S
C353       C1614   1.490       .  S
H354        O355   0.966       .  S
O355       Ni363   1.903       .  S
O355       Ni357   1.888       .  S
O355       Ni362   1.888       .  S
O356       Ni357   1.938       .  S
Ni357       O361   1.911       .  S
Ni357       O359   1.941       .  S
O358       Ni363   1.950       .  S
C360        O361   1.270       .  A
C360        C773   1.477       .  S
O365       Ni371   1.930       .  S
O365        C386   1.273       .  A
O366       Ni389   1.920       .  S
O366        C375   1.272       .  A
O367       Ni371   1.892       .  S
O367       Ni389   1.891       .  S
O367       Ni383   1.898       .  S
O367        H390   0.964       .  S
C368        O385   1.269       .  A
C368        O377   1.271       .  A
C368        C622   1.505       .  S
O369       Ni388   1.917       .  S
O369        C375   1.269       .  A
O370       Ni388   1.905       .  S
O370        C372   1.273       .  A
Ni371       O374   1.926       .  S
Ni371       O376   1.904       .  S
C372        O382   1.281       .  A
C372        C421   1.470       .  S
O373       Ni389   1.936       .  S
O373        C379   1.281       .  A
O374        C379   1.279       .  A
C375       C1637   1.476       .  S
O376        C378   1.269       .  A
O377       Ni388   1.932       .  S
C378        O384   1.275       .  A
C378        C549   1.508       .  S
C379        C462   1.481       .  S
H380        O381   0.966       .  S
O381       Ni389   1.946       .  S
O381       Ni383   1.918       .  S
O381       Ni388   1.917       .  S
O382       Ni383   1.954       .  S
Ni383       O387   1.913       .  S
Ni383       O385   1.923       .  S
O384       Ni389   1.943       .  S
C386        O387   1.270       .  A
C386        C878   1.479       .  S
O391       Ni397   1.929       .  S
O391        C412   1.275       .  A
O392       Ni415   1.913       .  S
O392        C401   1.270       .  A
O393       Ni397   1.887   1_565  S
O393       Ni415   1.888       .  S
O393       Ni409   1.898       .  S
O393        H416   0.965       .  S
C394        O411   1.269       .  A
C394        O403   1.271       .  A
C394        C741   1.487       .  S
O395       Ni414   1.923       .  S
O395        C401   1.273       .  A
O396       Ni414   1.906       .  S
O396        C398   1.276       .  A
Ni397       O400   1.924       .  S
Ni397       O402   1.909       .  S
C398        O408   1.285       .  A
C398        C430   1.481       .  S
O399       Ni415   1.940   1_545  S
O399        C405   1.283       .  A
O400        C405   1.279       .  A
C401       C1829   1.490       .  S
O402        C404   1.267       .  A
O403       Ni414   1.929       .  S
C404        O410   1.272       .  A
C404        C485   1.487       .  S
C405        C581   1.479       .  S
H406        O407   0.966       .  S
O407       Ni415   1.942       .  S
O407       Ni409   1.912       .  S
O407       Ni414   1.908       .  S
O408       Ni409   1.962       .  S
Ni409       O413   1.912       .  S
Ni409       O411   1.922       .  S
O410       Ni415   1.928   1_545  S
C412        O413   1.273   1_545  A
C412        C686   1.480       .  S
C417        C418   1.403       .  A
C417        C422   1.406       .  A
C417        H427   1.084       .  S
C418        C423   1.481       .  S
C418        C419   1.414       .  A
C419        C420   1.406       .  A
C419        C424   1.518       .  S
C420        C421   1.402       .  A
C420        H425   1.083       .  S
C421        C422   1.415       .  A
C422        C426   1.518       .  S
C423        C428   1.415       .  A
C423        C432   1.400       .  A
C424        F440   1.382       .  S
C424        F441   1.381       .  S
C424        F442   1.382       .  S
C426        F437   1.381       .  S
C426        F438   1.385       .  S
C426        F439   1.383       .  S
C428        C429   1.408       .  A
C428        C433   1.520       .  S
C429        C430   1.406       .  A
C429        H434   1.083       .  S
C430        C431   1.419       .  A
C431        C432   1.405       .  A
C431        C435   1.518       .  S
C432        H436   1.083       .  S
C433        F446   1.384       .  S
C433        F447   1.382       .  S
C433        F448   1.382       .  S
C435        F443   1.382       .  S
C435        F444   1.381       .  S
C435        F445   1.385       .  S
C449        C450   1.403       .  A
C449        C454   1.410       .  A
C449        H459   1.083       .  S
C450        C455   1.494       .  S
C450        C451   1.418       .  A
C451        C452   1.410       .  A
C451        C456   1.519       .  S
C452        C453   1.404       .  A
C452        H457   1.083       .  S
C453        C454   1.420       .  A
C454        C458   1.519       .  S
C455        C460   1.419       .  A
C455        C464   1.405       .  A
C456        F472   1.383       .  S
C456        F473   1.382       .  S
C456        F474   1.385       .  S
C458        F469   1.383       .  S
C458        F470   1.384       .  S
C458        F471   1.383       .  S
C460        C461   1.411       .  A
C460        C465   1.519       .  S
C461        C462   1.403       .  A
C461        H466   1.083       .  S
C462        C463   1.415       .  A
C463        C464   1.411       .  A
C463        C467   1.518       .  S
C464        H468   1.083       .  S
C465        F478   1.384       .  S
C465        F479   1.382       .  S
C465        F480   1.383       .  S
C467        F475   1.384       .  S
C467        F476   1.382       .  S
C467        F477   1.384       .  S
C481        C482   1.401       .  A
C481        C486   1.409       .  A
C481        H491   1.083       .  S
C482        C487   1.487       .  S
C482        C483   1.416       .  A
C483        C484   1.407       .  A
C483        C488   1.519       .  S
C484        C485   1.406       .  A
C484        H489   1.083       .  S
C485        C486   1.422       .  A
C486        C490   1.518       .  S
C487        C492   1.418       .  A
C487        C496   1.402       .  A
C488        F504   1.383       .  S
C488        F505   1.382       .  S
C488        F506   1.385       .  S
C490        F501   1.382       .  S
C490        F502   1.385       .  S
C490        F503   1.384       .  S
C492        C493   1.409       .  A
C492        C497   1.520       .  S
C493        C494   1.402       .  A
C493        H498   1.083       .  S
C494        C495   1.414       .  A
C495        C496   1.409       .  A
C495        C499   1.516       .  S
C496        H500   1.083       .  S
C497        F510   1.384       .  S
C497        F511   1.382       .  S
C497        F512   1.383       .  S
C499        F507   1.384       .  S
C499        F508   1.383       .  S
C499        F509   1.384       .  S
C513        C514   1.398       .  A
C513        C518   1.404       .  A
C513        H523   1.083   1_455  S
C514        C519   1.480   1_455  S
C514        C515   1.417       .  A
C515        C516   1.407       .  A
C515        C520   1.520       .  S
C516        C517   1.403       .  A
C516        H521   1.083       .  S
C517        C518   1.420       .  A
C518        C522   1.515       .  S
C519        C524   1.415       .  A
C519        C528   1.401       .  A
C520        F536   1.381       .  S
C520        F537   1.383       .  S
C520        F538   1.382       .  S
C522        F533   1.381       .  S
C522        F534   1.385       .  S
C522        F535   1.381       .  S
C524        C525   1.406       .  A
C524        C529   1.519   1_655  S
C525        C526   1.403       .  A
C525        H530   1.084       .  S
C526        C527   1.417       .  A
C527        C528   1.404       .  A
C527        C531   1.520       .  S
C528        H532   1.083       .  S
C529        F542   1.385       .  S
C529        F543   1.382       .  S
C529        F544   1.382       .  S
C531        F539   1.385       .  S
C531        F540   1.382       .  S
C531        F541   1.381       .  S
C545        C546   1.401       .  A
C545        C550   1.411       .  A
C545        H555   1.083       .  S
C546        C551   1.491       .  S
C546        C547   1.414       .  A
C547        C548   1.408       .  A
C547        C552   1.521       .  S
C548        C549   1.415       .  A
C548        H553   1.082       .  S
C549        C550   1.425       .  A
C550        C554   1.516       .  S
C551        C556   1.418       .  A
C551        C560   1.403       .  A
C552        F568   1.382       .  S
C552        F569   1.383       .  S
C552        F570   1.385       .  S
C554        F565   1.385       .  S
C554        F566   1.381       .  S
C554        F567   1.384       .  S
C556        C557   1.410       .  A
C556        C561   1.519       .  S
C557        C558   1.406       .  A
C557        H562   1.083       .  S
C558        C559   1.419       .  A
C559        C560   1.407       .  A
C559        C563   1.521       .  S
C560        H564   1.083       .  S
C561        F574   1.385       .  S
C561        F575   1.381       .  S
C561        F576   1.382       .  S
C563        F571   1.382       .  S
C563        F572   1.384       .  S
C563        F573   1.384       .  S
C577        C578   1.406       .  A
C577        C582   1.412       .  A
C577        H587   1.083       .  S
C578        C583   1.490       .  S
C578        C579   1.415       .  A
C579        C580   1.407       .  A
C579        C584   1.519   1_545  S
C580        C581   1.403       .  A
C580        H585   1.083   1_545  S
C581        C582   1.414       .  A
C582        C586   1.515       .  S
C583        C588   1.418       .  A
C583        C592   1.404       .  A
C584        F600   1.382       .  S
C584        F601   1.382   1_565  S
C584        F602   1.385       .  S
C586        F597   1.383       .  S
C586        F598   1.385       .  S
C586        F599   1.381       .  S
C588        C589   1.409       .  A
C588        C593   1.520       .  S
C589        C590   1.404       .  A
C589        H594   1.084       .  S
C590        C591   1.415       .  A
C591        C592   1.411       .  A
C591        C595   1.515       .  S
C592        H596   1.083       .  S
C593        F606   1.385       .  S
C593        F607   1.382       .  S
C593        F608   1.382       .  S
C595        F603   1.382       .  S
C595        F604   1.383       .  S
C595        F605   1.384       .  S
C609        C610   1.405       .  A
C609        C614   1.412       .  A
C609        H619   1.083       .  S
C610        C615   1.494       .  S
C610        C611   1.417       .  A
C611        C612   1.410       .  A
C611        C616   1.519       .  S
C612        C613   1.404       .  A
C612        H617   1.084       .  S
C613        C614   1.416       .  A
C614        C618   1.517       .  S
C615        C620   1.413       .  A
C615        C624   1.405       .  A
C616        F632   1.382       .  S
C616        F633   1.382       .  S
C616        F634   1.385       .  S
C618        F629   1.383       .  S
C618        F630   1.385       .  S
C618        F631   1.383       .  S
C620        C621   1.406       .  A
C620        C625   1.521       .  S
C621        C622   1.413       .  A
C621        H626   1.082       .  S
C622        C623   1.424       .  A
C623        C624   1.417       .  A
C623        C627   1.517       .  S
C624        H628   1.083       .  S
C625        F638   1.384       .  S
C625        F639   1.382       .  S
C625        F640   1.382       .  S
C627        F635   1.385       .  S
C627        F636   1.383       .  S
C627        F637   1.384       .  S
C641        C642   1.398       .  A
C641        C646   1.402       .  A
C641        H651   1.083       .  S
C642        C647   1.480       .  S
C642        C643   1.416       .  A
C643        C644   1.408       .  A
C643        C648   1.518       .  S
C644        C645   1.404       .  A
C644        H649   1.083   1_545  S
C645        C646   1.419       .  A
C646        C650   1.521       .  S
C647        C652   1.412       .  A
C647        C656   1.404       .  A
C648        F664   1.382       .  S
C648        F665   1.382   1_545  S
C648        F666   1.385   1_545  S
C650        F661   1.383       .  S
C650        F662   1.385       .  S
C650        F663   1.382       .  S
C652        C653   1.399       .  A
C652        C657   1.522       .  S
C653        C654   1.407       .  A
C653        H658   1.083       .  S
C654        C655   1.421       .  A
C655        C656   1.411       .  A
C655        C659   1.520       .  S
C656        H660   1.083       .  S
C657        F670   1.384   1_545  S
C657        F671   1.382       .  S
C657        F672   1.382   1_545  S
C659        F667   1.384       .  S
C659        F668   1.383       .  S
C659        F669   1.385       .  S
C673        C674   1.402       .  A
C673        C678   1.408       .  A
C673        H683   1.083       .  S
C674        C679   1.483       .  S
C674        C675   1.416       .  A
C675        C676   1.405       .  A
C675        C680   1.520       .  S
C676        C677   1.401       .  A
C676        H681   1.083       .  S
C677        C678   1.418       .  A
C678        C682   1.518       .  S
C679        C684   1.413       .  A
C679        C688   1.403       .  A
C680        F696   1.382       .  S
C680        F697   1.382       .  S
C680        F698   1.384       .  S
C682        F693   1.381       .  S
C682        F694   1.385       .  S
C682        F695   1.383       .  S
C684        C685   1.405       .  A
C684        C689   1.520       .  S
C685        C686   1.406       .  A
C685        H690   1.083       .  S
C686        C687   1.416       .  A
C687        C688   1.408       .  A
C687        C691   1.517   1_545  S
C688        H692   1.083       .  S
C689        F702   1.385       .  S
C689        F703   1.382       .  S
C689        F704   1.382       .  S
C691        F699   1.382       .  S
C691        F700   1.383       .  S
C691        F701   1.385       .  S
C705        C706   1.402       .  A
C705        C710   1.408       .  A
C705        H715   1.083       .  S
C706        C711   1.499       .  S
C706        C707   1.423       .  A
C707        C708   1.414   1_455  A
C707        C712   1.518       .  S
C708        C709   1.401       .  A
C708        H713   1.083       .  S
C709        C710   1.418   1_655  A
C710        C714   1.519   1_545  S
C711        C716   1.422       .  A
C711        C720   1.405       .  A
C712        F728   1.381       .  S
C712        F729   1.383       .  S
C712        F730   1.385   1_455  S
C714        F725   1.383   1_565  S
C714        F726   1.384       .  S
C714        F727   1.383   1_455  S
C716        C717   1.409       .  A
C716        C721   1.521       .  S
C717        C718   1.403       .  A
C717        H722   1.083       .  S
C718        C719   1.417       .  A
C719        C720   1.412       .  A
C719        C723   1.517       .  S
C720        H724   1.082       .  S
C721        F734   1.385       .  S
C721        F735   1.382       .  S
C721        F736   1.383       .  S
C723        F731   1.384       .  S
C723        F732   1.383       .  S
C723        F733   1.382       .  S
C737        C738   1.409       .  A
C737        C742   1.416       .  A
C737        H747   1.083       .  S
C738        C743   1.493       .  S
C738        C739   1.414       .  A
C739        C740   1.404       .  A
C739        C744   1.520       .  S
C740        C741   1.406       .  A
C740        H745   1.083       .  S
C741        C742   1.416       .  A
C742        C746   1.517       .  S
C743        C748   1.419       .  A
C743        C752   1.400       .  A
C744        F760   1.382       .  S
C744        F761   1.381       .  S
C744        F762   1.384       .  S
C746        F757   1.384       .  S
C746        F758   1.383       .  S
C746        F759   1.383       .  S
C748        C749   1.414       .  A
C748        C753   1.519       .  S
C749        C750   1.407       .  A
C749        H754   1.083       .  S
C750        C751   1.420       .  A
C751        C752   1.406       .  A
C751        C755   1.516       .  S
C752        H756   1.084       .  S
C753        F766   1.384       .  S
C753        F767   1.382       .  S
C753        F768   1.382       .  S
C755        F763   1.382       .  S
C755        F764   1.384       .  S
C755        F765   1.385       .  S
C769        C770   1.400       .  A
C769        C774   1.405       .  A
C769        H779   1.083       .  S
C770        C775   1.482       .  S
C770        C771   1.416       .  A
C771        C772   1.409       .  A
C771        C776   1.519       .  S
C772        C773   1.404       .  A
C772        H777   1.083       .  S
C773        C774   1.417       .  A
C774        C778   1.517       .  S
C775        C780   1.416       .  A
C775        C784   1.398       .  A
C776        F792   1.382       .  S
C776        F793   1.382       .  S
C776        F794   1.385       .  S
C778        F789   1.383       .  S
C778        F790   1.386       .  S
C778        F791   1.382       .  S
C780        C781   1.409       .  A
C780        C785   1.519       .  S
C781        C782   1.404       .  A
C781        H786   1.083       .  S
C782        C783   1.423       .  A
C783        C784   1.405       .  A
C783        C787   1.521       .  S
C784        H788   1.083       .  S
C785        F798   1.384       .  S
C785        F799   1.382       .  S
C785        F800   1.382       .  S
C787        F795   1.383       .  S
C787        F796   1.382       .  S
C787        F797   1.385       .  S
C801        C802   1.400       .  A
C801        C806   1.405       .  A
C801        H811   1.083       .  S
C802        C807   1.479   1_455  S
C802        C803   1.417       .  A
C803        C804   1.407       .  A
C803        C808   1.520   1_455  S
C804        C805   1.402       .  A
C804        H809   1.083       .  S
C805        C806   1.419       .  A
C806        C810   1.519       .  S
C807        C812   1.411       .  A
C807        C816   1.397       .  A
C808        F824   1.382       .  S
C808        F825   1.381       .  S
C808        F826   1.384       .  S
C810        F821   1.385       .  S
C810        F822   1.382       .  S
C810        F823   1.382       .  S
C812        C813   1.407       .  A
C812        C817   1.519       .  S
C813        C814   1.412       .  A
C813        H818   1.082       .  S
C814        C815   1.428       .  A
C815        C816   1.403       .  A
C815        C819   1.522       .  S
C816        H820   1.084       .  S
C817        F830   1.385       .  S
C817        F831   1.382   1_655  S
C817        F832   1.381       .  S
C819        F827   1.383       .  S
C819        F828   1.382       .  S
C819        F829   1.385       .  S
C833        C834   1.400       .  A
C833        C838   1.409       .  A
C833        H843   1.083       .  S
C834        C839   1.484       .  S
C834        C835   1.410       .  A
C835        C836   1.406       .  A
C835        C840   1.520       .  S
C836        C837   1.412       .  A
C836        H841   1.082       .  S
C837        C838   1.426       .  A
C838        C842   1.520       .  S
C839        C844   1.417       .  A
C839        C848   1.403       .  A
C840        F856   1.383       .  S
C840        F857   1.382       .  S
C840        F858   1.385       .  S
C842        F853   1.381       .  S
C842        F854   1.385       .  S
C842        F855   1.383       .  S
C844        C845   1.402       .  A
C844        C849   1.521       .  S
C845        C846   1.402       .  A
C845        H850   1.083       .  S
C846        C847   1.419       .  A
C847        C848   1.411       .  A
C847        C851   1.519       .  S
C848        H852   1.083       .  S
C849        F862   1.385       .  S
C849        F863   1.382       .  S
C849        F864   1.382       .  S
C851        F859   1.384       .  S
C851        F860   1.383       .  S
C851        F861   1.385       .  S
C865        C866   1.402       .  A
C865        C870   1.408       .  A
C865        H875   1.083       .  S
C866        C871   1.485       .  S
C866        C867   1.418       .  A
C867        C868   1.407       .  A
C867        C872   1.520       .  S
C868        C869   1.401       .  A
C868        H873   1.083       .  S
C869        C870   1.416       .  A
C870        C874   1.518       .  S
C871        C876   1.414       .  A
C871        C880   1.404       .  A
C872        F888   1.382       .  S
C872        F889   1.382       .  S
C872        F890   1.384       .  S
C874        F885   1.382       .  S
C874        F886   1.384       .  S
C874        F887   1.384       .  S
C876        C877   1.405       .  A
C876        C881   1.519       .  S
C877        C878   1.404       .  A
C877        H882   1.083       .  S
C878        C879   1.416       .  A
C879        C880   1.410       .  A
C879        C883   1.517       .  S
C880        H884   1.083       .  S
C881        F894   1.385       .  S
C881        F895   1.382       .  S
C881        F896   1.382       .  S
C883        F891   1.382       .  S
C883        F892   1.384       .  S
C883        F893   1.385       .  S
C897        C898   1.397       .  A
C897        C902   1.402       .  A
C897        H907   1.083       .  S
C898        C903   1.483       .  S
C898        C899   1.416       .  A
C899        C900   1.410       .  A
C899        C904   1.519       .  S
C900        C901   1.405       .  A
C900        H905   1.083       .  S
C901        C902   1.423       .  A
C902        C906   1.522       .  S
C903        C908   1.413       .  A
C903        C912   1.399       .  A
C904        F920   1.382       .  S
C904        F921   1.383       .  S
C904        F922   1.385       .  S
C906        F917   1.385       .  S
C906        F918   1.382       .  S
C906        F919   1.383       .  S
C908        C909   1.403       .  A
C908        C913   1.523       .  S
C909        C910   1.412       .  A
C909        H914   1.082       .  S
C910        C911   1.429       .  A
C911        C912   1.410       .  A
C911        C915   1.521       .  S
C912        H916   1.083       .  S
C913        F926   1.385       .  S
C913        F927   1.382       .  S
C913        F928   1.382       .  S
C915        F923   1.385       .  S
C915        F924   1.384       .  S
C915        F925   1.383       .  S
C929        C930   1.406       .  A
C929        C934   1.415   1_655  A
C929        H939   1.083       .  S
C930        C935   1.491       .  S
C930        C931   1.415       .  A
C931        C932   1.404       .  A
C931        C936   1.522       .  S
C932        C933   1.407   1_655  A
C932        H937   1.083       .  S
C933        C934   1.419       .  A
C934        C938   1.515       .  S
C935        C940   1.417       .  A
C935        C944   1.400       .  A
C936        F952   1.382       .  S
C936        F953   1.382       .  S
C936        F954   1.385       .  S
C938        F949   1.382       .  S
C938        F950   1.385       .  S
C938        F951   1.382       .  S
C940        C941   1.413       .  A
C940        C945   1.515       .  S
C941        C942   1.403       .  A
C941        H946   1.083       .  S
C942        C943   1.419       .  A
C943        C944   1.405       .  A
C943        C947   1.515       .  S
C944        H948   1.083       .  S
C945        F958   1.384       .  S
C945        F959   1.383       .  S
C945        F960   1.382       .  S
C947        F955   1.380       .  S
C947        F956   1.382       .  S
C947        F957   1.385       .  S
C961        C962   1.399       .  A
C961        C966   1.408       .  A
C961        H971   1.083       .  S
C962        C967   1.490       .  S
C962        C963   1.413       .  A
C963        C964   1.411       .  A
C963        C968   1.518       .  S
C964        C965   1.412       .  A
C964        H969   1.083       .  S
C965        C966   1.424       .  A
C966        C970   1.515       .  S
C967        C972   1.416       .  A
C967        C976   1.405       .  A
C968        F984   1.383       .  S
C968        F985   1.382       .  S
C968        F986   1.385       .  S
C970        F981   1.384       .  S
C970        F982   1.383       .  S
C970        F983   1.383       .  S
C972        C973   1.403       .  A
C972        C977   1.522       .  S
C973        C974   1.404       .  A
C973        H978   1.080       .  S
C974        C975   1.421       .  A
C975        C976   1.415       .  A
C975        C979   1.518       .  S
C976        H980   1.083       .  S
C977        F990   1.385       .  S
C977        F991   1.382       .  S
C977        F992   1.383       .  S
C979        F987   1.384       .  S
C979        F988   1.382       .  S
C979        F989   1.385       .  S
C993        C994   1.402       .  A
C993        C998   1.407       .  A
C993       H1003   1.083       .  S
C994        C999   1.489       .  S
C994        C995   1.416       .  A
C995        C996   1.410       .  A
C995       C1000   1.519       .  S
C996        C997   1.406       .  A
C996       H1001   1.083       .  S
C997        C998   1.419       .  A
C998       C1002   1.519       .  S
C999       C1004   1.420       .  A
C999       C1008   1.401       .  A
C1000      F1016   1.382       .  S
C1000      F1017   1.382       .  S
C1000      F1018   1.385       .  S
C1002      F1013   1.382       .  S
C1002      F1014   1.385       .  S
C1002      F1015   1.382       .  S
C1004      C1005   1.410       .  A
C1004      C1009   1.520       .  S
C1005      C1006   1.401   1_556  A
C1005      H1010   1.083       .  S
C1006      C1007   1.421   1_554  A
C1007      C1008   1.408       .  A
C1007      C1011   1.520   1_556  S
C1008      H1012   1.083       .  S
C1009      F1022   1.384       .  S
C1009      F1023   1.382       .  S
C1009      F1024   1.382       .  S
C1011      F1019   1.382       .  S
C1011      F1020   1.383       .  S
C1011      F1021   1.385       .  S
C1025      C1026   1.398       .  A
C1025      C1030   1.404       .  A
C1025      H1035   1.083       .  S
C1026      C1031   1.486       .  S
C1026      C1027   1.418       .  A
C1027      C1028   1.411       .  A
C1027      C1032   1.517       .  S
C1028      C1029   1.402       .  A
C1028      H1033   1.083       .  S
C1029      C1030   1.422       .  A
C1030      C1034   1.522       .  S
C1031      C1036   1.418       .  A
C1031      C1040   1.403       .  A
C1032      F1048   1.383       .  S
C1032      F1049   1.382       .  S
C1032      F1050   1.385       .  S
C1034      F1045   1.384       .  S
C1034      F1046   1.382       .  S
C1034      F1047   1.382       .  S
C1036      C1037   1.408       .  A
C1036      C1041   1.519       .  S
C1037      C1038   1.400       .  A
C1037      H1042   1.081       .  S
C1038      C1039   1.414       .  A
C1039      C1040   1.407       .  A
C1039      C1043   1.517       .  S
C1040      H1044   1.083       .  S
C1041      F1054   1.385       .  S
C1041      F1055   1.382       .  S
C1041      F1056   1.382       .  S
C1043      F1051   1.385       .  S
C1043      F1052   1.383   1_556  S
C1043      F1053   1.383   1_556  S
C1057      C1058   1.401       .  A
C1057      C1062   1.404       .  A
C1057      H1067   1.083       .  S
C1058      C1063   1.484   1_455  S
C1058      C1059   1.420       .  A
C1059      C1060   1.407       .  A
C1059      C1064   1.519   1_455  S
C1060      C1061   1.399       .  A
C1060      H1065   1.083       .  S
C1061      C1062   1.414       .  A
C1062      C1066   1.518       .  S
C1063      C1068   1.416       .  A
C1063      C1072   1.399       .  A
C1064      F1080   1.382       .  S
C1064      F1081   1.383       .  S
C1064      F1082   1.385       .  S
C1066      F1077   1.384       .  S
C1066      F1078   1.383       .  S
C1066      F1079   1.383       .  S
C1068      C1069   1.406       .  A
C1068      C1073   1.520   1_655  S
C1069      C1070   1.405       .  A
C1069      H1074   1.083       .  S
C1070      C1071   1.424       .  A
C1071      C1072   1.407       .  A
C1071      C1075   1.519       .  S
C1072      H1076   1.083       .  S
C1073      F1086   1.385   1_455  S
C1073      F1087   1.382       .  S
C1073      F1088   1.382       .  S
C1075      F1083   1.382       .  S
C1075      F1084   1.382       .  S
C1075      F1085   1.385       .  S
C1089      C1090   1.405       .  A
C1089      C1094   1.410       .  A
C1089      H1099   1.084       .  S
C1090      C1095   1.494   1_556  S
C1090      C1091   1.416       .  A
C1091      C1092   1.408       .  A
C1091      C1096   1.519       .  S
C1092      C1093   1.407       .  A
C1092      H1097   1.084       .  S
C1093      C1094   1.419       .  A
C1094      C1098   1.517       .  S
C1095      C1100   1.413       .  A
C1095      C1104   1.403   1_554  A
C1096      F1112   1.382       .  S
C1096      F1113   1.382   1_556  S
C1096      F1114   1.385       .  S
C1098      F1109   1.383       .  S
C1098      F1110   1.383       .  S
C1098      F1111   1.380       .  S
C1100      C1101   1.408       .  A
C1100      C1105   1.522       .  S
C1101      C1102   1.416       .  A
C1101      H1106   1.082       .  S
C1102      C1103   1.426       .  A
C1103      C1104   1.414   1_554  A
C1103      C1107   1.516   1_554  S
C1104      H1108   1.083       .  S
C1105      F1118   1.385       .  S
C1105      F1119   1.382       .  S
C1105      F1120   1.382       .  S
C1107      F1115   1.385       .  S
C1107      F1116   1.380   1_556  S
C1107      F1117   1.382   1_556  S
C1121      C1122   1.405       .  A
C1121      C1126   1.412       .  A
C1121      H1131   1.083       .  S
C1122      C1127   1.488       .  S
C1122      C1123   1.415       .  A
C1123      C1124   1.405   1_554  A
C1123      C1128   1.520       .  S
C1124      C1125   1.403       .  A
C1124      H1129   1.083       .  S
C1125      C1126   1.419   1_556  A
C1126      C1130   1.517   1_554  S
C1127      C1132   1.417       .  A
C1127      C1136   1.398       .  A
C1128      F1144   1.382       .  S
C1128      F1145   1.381       .  S
C1128      F1146   1.385       .  S
C1130      F1141   1.384   1_556  S
C1130      F1142   1.382       .  S
C1130      F1143   1.383       .  S
C1132      C1133   1.412       .  A
C1132      C1137   1.519       .  S
C1133      C1134   1.407       .  A
C1133      H1138   1.082       .  S
C1134      C1135   1.425       .  A
C1135      C1136   1.407       .  A
C1135      C1139   1.521       .  S
C1136      H1140   1.083       .  S
C1137      F1150   1.384       .  S
C1137      F1151   1.383       .  S
C1137      F1152   1.382       .  S
C1139      F1147   1.385       .  S
C1139      F1148   1.384       .  S
C1139      F1149   1.382       .  S
C1153      C1154   1.400       .  A
C1153      C1158   1.410       .  A
C1153      H1163   1.083       .  S
C1154      C1159   1.487       .  S
C1154      C1155   1.411       .  A
C1155      C1156   1.408       .  A
C1155      C1160   1.520       .  S
C1156      C1157   1.413       .  A
C1156      H1161   1.082       .  S
C1157      C1158   1.426       .  A
C1158      C1162   1.517       .  S
C1159      C1164   1.417       .  A
C1159      C1168   1.403       .  A
C1160      F1176   1.383       .  S
C1160      F1177   1.383       .  S
C1160      F1178   1.384       .  S
C1162      F1173   1.383       .  S
C1162      F1174   1.385       .  S
C1162      F1175   1.383       .  S
C1164      C1165   1.405   1_455  A
C1164      C1169   1.521       .  S
C1165      C1166   1.403       .  A
C1165      H1170   1.083       .  S
C1166      C1167   1.420       .  A
C1167      C1168   1.412   1_655  A
C1167      C1171   1.518       .  S
C1168      H1172   1.083       .  S
C1169      F1182   1.384       .  S
C1169      F1183   1.382       .  S
C1169      F1184   1.382       .  S
C1171      F1179   1.384   1_655  S
C1171      F1180   1.383       .  S
C1171      F1181   1.382       .  S
C1185      C1186   1.404       .  A
C1185      C1190   1.408       .  A
C1185      H1195   1.083       .  S
C1186      C1191   1.491       .  S
C1186      C1187   1.417       .  A
C1187      C1188   1.411       .  A
C1187      C1192   1.519       .  S
C1188      C1189   1.404       .  A
C1188      H1193   1.083       .  S
C1189      C1190   1.416       .  A
C1190      C1194   1.518       .  S
C1191      C1196   1.413       .  A
C1191      C1200   1.402       .  A
C1192      F1208   1.382       .  S
C1192      F1209   1.382       .  S
C1192      F1210   1.384       .  S
C1194      F1205   1.385       .  S
C1194      F1206   1.382       .  S
C1194      F1207   1.384       .  S
C1196      C1197   1.408       .  A
C1196      C1201   1.519       .  S
C1197      C1198   1.412       .  A
C1197      H1202   1.083       .  S
C1198      C1199   1.426       .  A
C1199      C1200   1.412       .  A
C1199      C1203   1.518       .  S
C1200      H1204   1.083       .  S
C1201      F1214   1.384       .  S
C1201      F1215   1.382       .  S
C1201      F1216   1.383       .  S
C1203      F1211   1.384       .  S
C1203      F1212   1.381   1_565  S
C1203      F1213   1.382   1_565  S
C1217      C1218   1.407       .  A
C1217      C1222   1.414       .  A
C1217      H1227   1.083       .  S
C1218      C1223   1.496   1_556  S
C1218      C1219   1.417   1_545  A
C1219      C1220   1.409       .  A
C1219      C1224   1.521       .  S
C1220      C1221   1.406   1_565  A
C1220      H1225   1.083       .  S
C1221      C1222   1.415       .  A
C1222      C1226   1.515       .  S
C1223      C1228   1.414       .  A
C1223      C1232   1.402   1_554  A
C1224      F1240   1.382       .  S
C1224      F1241   1.382   1_556  S
C1224      F1242   1.385       .  S
C1226      F1237   1.383       .  S
C1226      F1238   1.384       .  S
C1226      F1239   1.383       .  S
C1228      C1229   1.410       .  A
C1228      C1233   1.521       .  S
C1229      C1230   1.415       .  A
C1229      H1234   1.082       .  S
C1230      C1231   1.427       .  A
C1231      C1232   1.414   1_554  A
C1231      C1235   1.514   1_554  S
C1232      H1236   1.083       .  S
C1233      F1246   1.385       .  S
C1233      F1247   1.382       .  S
C1233      F1248   1.382   1_545  S
C1235      F1243   1.380   1_556  S
C1235      F1244   1.382   1_556  S
C1235      F1245   1.385       .  S
C1249      C1250   1.404       .  A
C1249      C1254   1.410       .  A
C1249      H1259   1.083       .  S
C1250      C1255   1.482       .  S
C1250      C1251   1.411       .  A
C1251      C1252   1.401   1_554  A
C1251      C1256   1.521       .  S
C1252      C1253   1.409       .  A
C1252      H1257   1.082       .  S
C1253      C1254   1.422   1_556  A
C1254      C1258   1.519       .  S
C1255      C1260   1.414       .  A
C1255      C1264   1.402       .  A
C1256      F1272   1.381       .  S
C1256      F1273   1.382   1_565  S
C1256      F1274   1.385       .  S
C1258      F1269   1.384   1_554  S
C1258      F1270   1.385       .  S
C1258      F1271   1.383   1_554  S
C1260      C1261   1.407       .  A
C1260      C1265   1.520   1_565  S
C1261      C1262   1.404       .  A
C1261      H1266   1.079   1_565  S
C1262      C1263   1.417       .  A
C1263      C1264   1.405       .  A
C1263      C1267   1.518       .  S
C1264      H1268   1.083       .  S
C1265      F1278   1.383       .  S
C1265      F1279   1.381   1_545  S
C1265      F1280   1.382       .  S
C1267      F1275   1.382       .  S
C1267      F1276   1.383       .  S
C1267      F1277   1.385       .  S
C1281      C1282   1.400       .  A
C1281      C1286   1.411       .  A
C1281      H1291   1.083       .  S
C1282      C1287   1.485       .  S
C1282      C1283   1.412       .  A
C1283      C1284   1.404       .  A
C1283      C1288   1.522       .  S
C1284      C1285   1.412       .  A
C1284      H1289   1.082       .  S
C1285      C1286   1.429       .  A
C1286      C1290   1.520       .  S
C1287      C1292   1.414       .  A
C1287      C1296   1.404       .  A
C1288      F1304   1.382       .  S
C1288      F1305   1.383       .  S
C1288      F1306   1.385       .  S
C1290      F1301   1.385       .  S
C1290      F1302   1.383       .  S
C1290      F1303   1.383       .  S
C1292      C1293   1.405       .  A
C1292      C1297   1.519       .  S
C1293      C1294   1.405       .  A
C1293      H1298   1.084       .  S
C1294      C1295   1.416       .  A
C1295      C1296   1.409       .  A
C1295      C1299   1.515       .  S
C1296      H1300   1.083       .  S
C1297      F1310   1.385       .  S
C1297      F1311   1.382       .  S
C1297      F1312   1.382       .  S
C1299      F1307   1.382       .  S
C1299      F1308   1.383       .  S
C1299      F1309   1.385       .  S
C1313      C1314   1.403       .  A
C1313      C1318   1.414   1_655  A
C1313      H1323   1.083       .  S
C1314      C1319   1.489   1_545  S
C1314      C1315   1.411       .  A
C1315      C1316   1.404       .  A
C1315      C1320   1.522       .  S
C1316      C1317   1.415   1_655  A
C1316      H1321   1.082       .  S
C1317      C1318   1.425       .  A
C1318      C1322   1.518       .  S
C1319      C1324   1.414       .  A
C1319      C1328   1.404   1_565  A
C1320      F1336   1.382       .  S
C1320      F1337   1.383   1_545  S
C1320      F1338   1.385       .  S
C1322      F1333   1.382       .  S
C1322      F1334   1.384       .  S
C1322      F1335   1.384       .  S
C1324      C1325   1.406       .  A
C1324      C1329   1.521       .  S
C1325      C1326   1.407       .  A
C1325      H1330   1.083       .  S
C1326      C1327   1.420   1_565  A
C1327      C1328   1.413       .  A
C1327      C1331   1.517       .  S
C1328      H1332   1.083       .  S
C1329      F1342   1.384       .  S
C1329      F1343   1.382       .  S
C1329      F1344   1.383       .  S
C1331      F1339   1.383       .  S
C1331      F1340   1.382       .  S
C1331      F1341   1.385       .  S
C1345      C1346   1.401       .  A
C1345      C1350   1.409       .  A
C1345      H1355   1.083       .  S
C1346      C1351   1.487       .  S
C1346      C1347   1.416       .  A
C1347      C1348   1.407       .  A
C1347      C1352   1.520       .  S
C1348      C1349   1.405       .  A
C1348      H1353   1.083       .  S
C1349      C1350   1.423       .  A
C1350      C1354   1.521       .  S
C1351      C1356   1.418       .  A
C1351      C1360   1.402       .  A
C1352      F1368   1.382       .  S
C1352      F1369   1.382       .  S
C1352      F1370   1.385       .  S
C1354      F1365   1.382       .  S
C1354      F1366   1.385       .  S
C1354      F1367   1.383       .  S
C1356      C1357   1.409       .  A
C1356      C1361   1.521       .  S
C1357      C1358   1.403       .  A
C1357      H1362   1.083       .  S
C1358      C1359   1.417       .  A
C1359      C1360   1.409       .  A
C1359      C1363   1.519       .  S
C1360      H1364   1.083       .  S
C1361      F1374   1.384       .  S
C1361      F1375   1.382       .  S
C1361      F1376   1.382       .  S
C1363      F1371   1.384       .  S
C1363      F1372   1.383       .  S
C1363      F1373   1.384       .  S
C1377      C1378   1.400       .  A
C1377      C1382   1.411       .  A
C1377      H1387   1.083       .  S
C1378      C1383   1.483       .  S
C1378      C1379   1.409       .  A
C1379      C1380   1.404       .  A
C1379      C1384   1.521       .  S
C1380      C1381   1.414       .  A
C1380      H1385   1.082       .  S
C1381      C1382   1.426       .  A
C1382      C1386   1.513       .  S
C1383      C1388   1.415       .  A
C1383      C1392   1.406       .  A
C1384      F1400   1.382       .  S
C1384      F1401   1.382       .  S
C1384      F1402   1.384       .  S
C1386      F1397   1.381       .  S
C1386      F1398   1.385       .  S
C1386      F1399   1.381       .  S
C1388      C1389   1.403       .  A
C1388      C1393   1.521       .  S
C1389      C1390   1.403       .  A
C1389      H1394   1.084       .  S
C1390      C1391   1.411       .  A
C1391      C1392   1.409       .  A
C1391      C1395   1.515       .  S
C1392      H1396   1.083       .  S
C1393      F1406   1.385       .  S
C1393      F1407   1.382       .  S
C1393      F1408   1.382       .  S
C1395      F1403   1.385       .  S
C1395      F1404   1.383       .  S
C1395      F1405   1.383       .  S
C1409      C1410   1.401       .  A
C1409      C1414   1.404       .  A
C1409      H1419   1.083       .  S
C1410      C1415   1.475       .  S
C1410      C1411   1.416       .  A
C1411      C1412   1.402       .  A
C1411      C1416   1.520       .  S
C1412      C1413   1.397       .  A
C1412      H1417   1.084       .  S
C1413      C1414   1.415       .  A
C1414      C1418   1.517       .  S
C1415      C1420   1.414       .  A
C1415      C1424   1.398       .  A
C1416      F1432   1.381       .  S
C1416      F1433   1.382       .  S
C1416      F1434   1.385       .  S
C1418      F1429   1.385       .  S
C1418      F1430   1.381       .  S
C1418      F1431   1.383       .  S
C1420      C1421   1.406       .  A
C1420      C1425   1.520       .  S
C1421      C1422   1.403       .  A
C1421      H1426   1.083       .  S
C1422      C1423   1.421       .  A
C1423      C1424   1.403       .  A
C1423      C1427   1.521       .  S
C1424      H1428   1.084       .  S
C1425      F1438   1.384       .  S
C1425      F1439   1.382       .  S
C1425      F1440   1.382       .  S
C1427      F1435   1.385       .  S
C1427      F1436   1.384       .  S
C1427      F1437   1.382       .  S
C1441      C1442   1.400       .  A
C1441      C1446   1.402       .  A
C1441      H1451   1.084       .  S
C1442      C1447   1.481   1_565  S
C1442      C1443   1.416       .  A
C1443      C1444   1.410       .  A
C1443      C1448   1.520   1_565  S
C1444      C1445   1.406       .  A
C1444      H1449   1.083       .  S
C1445      C1446   1.420       .  A
C1446      C1450   1.521       .  S
C1447      C1452   1.410   1_545  A
C1447      C1456   1.403       .  A
C1448      F1464   1.382       .  S
C1448      F1465   1.381   1_545  S
C1448      F1466   1.384       .  S
C1450      F1461   1.385       .  S
C1450      F1462   1.383       .  S
C1450      F1463   1.384       .  S
C1452      C1453   1.401   1_565  A
C1452      C1457   1.522       .  S
C1453      C1454   1.413       .  A
C1453      H1458   1.082   1_545  S
C1454      C1455   1.423       .  A
C1455      C1456   1.410       .  A
C1455      C1459   1.519       .  S
C1456      H1460   1.083       .  S
C1457      F1470   1.385       .  S
C1457      F1471   1.382       .  S
C1457      F1472   1.381       .  S
C1459      F1467   1.383       .  S
C1459      F1468   1.382       .  S
C1459      F1469   1.385       .  S
C1473      C1474   1.406       .  A
C1473      C1478   1.413       .  A
C1473      H1483   1.083       .  S
C1474      C1479   1.487       .  S
C1474      C1475   1.413       .  A
C1475      C1476   1.405       .  A
C1475      C1480   1.521       .  S
C1476      C1477   1.407       .  A
C1476      H1481   1.082       .  S
C1477      C1478   1.417       .  A
C1478      C1482   1.517       .  S
C1479      C1484   1.415       .  A
C1479      C1488   1.400       .  A
C1480      F1496   1.382       .  S
C1480      F1497   1.381       .  S
C1480      F1498   1.385       .  S
C1482      F1493   1.382       .  S
C1482      F1494   1.385       .  S
C1482      F1495   1.384       .  S
C1484      C1485   1.410       .  A
C1484      C1489   1.521       .  S
C1485      C1486   1.410       .  A
C1485      H1490   1.083       .  S
C1486      C1487   1.419       .  A
C1487      C1488   1.407       .  A
C1487      C1491   1.514       .  S
C1488      H1492   1.083       .  S
C1489      F1502   1.385       .  S
C1489      F1503   1.382       .  S
C1489      F1504   1.381       .  S
C1491      F1499   1.385       .  S
C1491      F1500   1.381       .  S
C1491      F1501   1.382       .  S
C1505      C1506   1.403       .  A
C1505      C1510   1.409       .  A
C1505      H1515   1.083       .  S
C1506      C1511   1.490       .  S
C1506      C1507   1.416       .  A
C1507      C1508   1.410       .  A
C1507      C1512   1.518       .  S
C1508      C1509   1.403       .  A
C1508      H1513   1.082       .  S
C1509      C1510   1.418       .  A
C1510      C1514   1.517       .  S
C1511      C1516   1.416       .  A
C1511      C1520   1.405       .  A
C1512      F1528   1.382       .  S
C1512      F1529   1.382       .  S
C1512      F1530   1.384       .  S
C1514      F1525   1.385       .  S
C1514      F1526   1.380       .  S
C1514      F1527   1.383       .  S
C1516      C1517   1.405       .  A
C1516      C1521   1.520       .  S
C1517      C1518   1.406       .  A
C1517      H1522   1.083       .  S
C1518      C1519   1.418       .  A
C1519      C1520   1.412       .  A
C1519      C1523   1.518       .  S
C1520      H1524   1.083       .  S
C1521      F1534   1.385       .  S
C1521      F1535   1.382       .  S
C1521      F1536   1.382       .  S
C1523      F1531   1.384       .  S
C1523      F1532   1.384       .  S
C1523      F1533   1.382       .  S
C1537      C1538   1.407       .  A
C1537      C1542   1.415       .  A
C1537      H1547   1.083       .  S
C1538      C1543   1.493       .  S
C1538      C1539   1.414       .  A
C1539      C1540   1.405       .  A
C1539      C1544   1.520       .  S
C1540      C1541   1.408       .  A
C1540      H1545   1.083       .  S
C1541      C1542   1.420       .  A
C1542      C1546   1.518       .  S
C1543      C1548   1.418       .  A
C1543      C1552   1.405       .  A
C1544      F1560   1.382       .  S
C1544      F1561   1.382       .  S
C1544      F1562   1.385       .  S
C1546      F1557   1.385       .  S
C1546      F1558   1.383       .  S
C1546      F1559   1.383       .  S
C1548      C1549   1.410       .  A
C1548      C1553   1.519       .  S
C1549      C1550   1.403       .  A
C1549      H1554   1.080       .  S
C1550      C1551   1.415       .  A
C1551      C1552   1.410       .  A
C1551      C1555   1.518       .  S
C1552      H1556   1.083       .  S
C1553      F1566   1.385       .  S
C1553      F1567   1.382       .  S
C1553      F1568   1.382       .  S
C1555      F1563   1.385       .  S
C1555      F1564   1.382       .  S
C1555      F1565   1.384       .  S
C1569      C1570   1.396       .  A
C1569      C1574   1.403       .  A
C1569      H1579   1.083       .  S
C1570      C1575   1.482       .  S
C1570      C1571   1.415       .  A
C1571      C1572   1.408       .  A
C1571      C1576   1.519       .  S
C1572      C1573   1.406       .  A
C1572      H1577   1.083       .  S
C1573      C1574   1.426       .  A
C1574      C1578   1.522       .  S
C1575      C1580   1.415       .  A
C1575      C1584   1.397       .  A
C1576      F1592   1.382       .  S
C1576      F1593   1.383       .  S
C1576      F1594   1.384       .  S
C1578      F1589   1.385       .  S
C1578      F1590   1.381       .  S
C1578      F1591   1.382       .  S
C1580      C1581   1.407       .  A
C1580      C1585   1.520       .  S
C1581      C1582   1.407       .  A
C1581      H1586   1.083       .  S
C1582      C1583   1.428       .  A
C1583      C1584   1.404       .  A
C1583      C1587   1.523       .  S
C1584      H1588   1.083       .  S
C1585      F1598   1.384       .  S
C1585      F1599   1.382       .  S
C1585      F1600   1.383       .  S
C1587      F1595   1.383       .  S
C1587      F1596   1.384       .  S
C1587      F1597   1.385       .  S
C1601      C1602   1.406       .  A
C1601      C1606   1.414       .  A
C1601      H1611   1.083       .  S
C1602      C1607   1.492   1_655  S
C1602      C1603   1.414       .  A
C1603      C1604   1.407       .  A
C1603      C1608   1.521   1_655  S
C1604      C1605   1.408       .  A
C1604      H1609   1.084       .  S
C1605      C1606   1.417       .  A
C1606      C1610   1.515       .  S
C1607      C1612   1.418       .  A
C1607      C1616   1.400       .  A
C1608      F1624   1.383       .  S
C1608      F1625   1.383       .  S
C1608      F1626   1.384       .  S
C1610      F1621   1.384       .  S
C1610      F1622   1.382       .  S
C1610      F1623   1.383       .  S
C1612      C1613   1.412       .  A
C1612      C1617   1.519       .  S
C1613      C1614   1.406       .  A
C1613      H1618   1.082       .  S
C1614      C1615   1.420       .  A
C1615      C1616   1.408       .  A
C1615      C1619   1.518       .  S
C1616      H1620   1.083       .  S
C1617      F1630   1.384       .  S
C1617      F1631   1.382       .  S
C1617      F1632   1.382       .  S
C1619      F1627   1.385       .  S
C1619      F1628   1.382       .  S
C1619      F1629   1.383       .  S
C1633      C1634   1.405       .  A
C1633      C1638   1.410       .  A
C1633      H1643   1.083       .  S
C1634      C1639   1.489       .  S
C1634      C1635   1.416       .  A
C1635      C1636   1.408       .  A
C1635      C1640   1.519       .  S
C1636      C1637   1.402       .  A
C1636      H1641   1.083       .  S
C1637      C1638   1.415       .  A
C1638      C1642   1.517       .  S
C1639      C1644   1.419       .  A
C1639      C1648   1.400       .  A
C1640      F1656   1.382       .  S
C1640      F1657   1.382       .  S
C1640      F1658   1.384       .  S
C1642      F1653   1.385       .  S
C1642      F1654   1.383       .  S
C1642      F1655   1.383       .  S
C1644      C1645   1.413       .  A
C1644      C1649   1.520       .  S
C1645      C1646   1.404       .  A
C1645      H1650   1.083       .  S
C1646      C1647   1.419       .  A
C1647      C1648   1.406       .  A
C1647      C1651   1.519       .  S
C1648      H1652   1.083       .  S
C1649      F1662   1.384       .  S
C1649      F1663   1.383       .  S
C1649      F1664   1.382       .  S
C1651      F1659   1.384       .  S
C1651      F1660   1.382       .  S
C1651      F1661   1.382       .  S
C1665      C1666   1.399       .  A
C1665      C1670   1.406       .  A
C1665      H1675   1.083       .  S
C1666      C1671   1.485       .  S
C1666      C1667   1.417       .  A
C1667      C1668   1.411       .  A
C1667      C1672   1.520       .  S
C1668      C1669   1.405       .  A
C1668      H1673   1.083       .  S
C1669      C1670   1.421       .  A
C1670      C1674   1.519       .  S
C1671      C1676   1.417       .  A
C1671      C1680   1.403       .  A
C1672      F1688   1.382       .  S
C1672      F1689   1.381       .  S
C1672      F1690   1.385       .  S
C1674      F1685   1.385       .  S
C1674      F1686   1.382       .  S
C1674      F1687   1.383       .  S
C1676      C1677   1.409       .  A
C1676      C1681   1.519       .  S
C1677      C1678   1.402       .  A
C1677      H1682   1.080       .  S
C1678      C1679   1.413       .  A
C1679      C1680   1.406       .  A
C1679      C1683   1.518       .  S
C1680      H1684   1.083       .  S
C1681      F1694   1.384       .  S
C1681      F1695   1.382       .  S
C1681      F1696   1.381       .  S
C1683      F1691   1.384       .  S
C1683      F1692   1.384       .  S
C1683      F1693   1.382       .  S
C1697      C1698   1.400       .  A
C1697      C1702   1.407       .  A
C1697      H1707   1.083       .  S
C1698      C1703   1.482       .  S
C1698      C1699   1.412       .  A
C1699      C1700   1.405       .  A
C1699      C1704   1.520       .  S
C1700      C1701   1.410       .  A
C1700      H1705   1.083       .  S
C1701      C1702   1.426       .  A
C1702      C1706   1.521       .  S
C1703      C1708   1.417       .  A
C1703      C1712   1.402       .  A
C1704      F1720   1.382       .  S
C1704      F1721   1.382       .  S
C1704      F1722   1.384       .  S
C1706      F1717   1.386       .  S
C1706      F1718   1.383       .  S
C1706      F1719   1.382       .  S
C1708      C1709   1.408       .  A
C1708      C1713   1.520       .  S
C1709      C1710   1.403       .  A
C1709      H1714   1.083       .  S
C1710      C1711   1.415       .  A
C1711      C1712   1.404       .  A
C1711      C1715   1.519       .  S
C1712      H1716   1.083       .  S
C1713      F1726   1.385       .  S
C1713      F1727   1.382       .  S
C1713      F1728   1.382       .  S
C1715      F1723   1.382       .  S
C1715      F1724   1.383       .  S
C1715      F1725   1.385       .  S
C1729      C1730   1.403       .  A
C1729      C1734   1.411       .  A
C1729      H1739   1.083       .  S
C1730      C1735   1.485       .  S
C1730      C1731   1.416       .  A
C1731      C1732   1.403       .  A
C1731      C1736   1.521       .  S
C1732      C1733   1.403       .  A
C1732      H1737   1.083       .  S
C1733      C1734   1.420       .  A
C1734      C1738   1.518       .  S
C1735      C1740   1.412       .  A
C1735      C1744   1.399       .  A
C1736      F1752   1.382       .  S
C1736      F1753   1.382       .  S
C1736      F1754   1.384       .  S
C1738      F1749   1.385       .  S
C1738      F1750   1.383       .  S
C1738      F1751   1.383       .  S
C1740      C1741   1.410       .  A
C1740      C1745   1.519       .  S
C1741      C1742   1.411       .  A
C1741      H1746   1.083       .  S
C1742      C1743   1.425       .  A
C1743      C1744   1.406       .  A
C1743      C1747   1.521       .  S
C1744      H1748   1.083       .  S
C1745      F1758   1.384       .  S
C1745      F1759   1.382       .  S
C1745      F1760   1.382       .  S
C1747      F1755   1.382   1_565  S
C1747      F1756   1.384       .  S
C1747      F1757   1.384       .  S
C1761      C1762   1.400       .  A
C1761      C1766   1.406       .  A
C1761      H1771   1.083   1_655  S
C1762      C1767   1.495   1_655  S
C1762      C1763   1.420       .  A
C1763      C1764   1.414       .  A
C1763      C1768   1.519       .  S
C1764      C1765   1.406       .  A
C1764      H1769   1.083       .  S
C1765      C1766   1.420       .  A
C1766      C1770   1.518       .  S
C1767      C1772   1.418   1_545  A
C1767      C1776   1.409       .  A
C1768      F1784   1.382       .  S
C1768      F1785   1.383       .  S
C1768      F1786   1.385       .  S
C1770      F1781   1.384   1_545  S
C1770      F1782   1.385   1_545  S
C1770      F1783   1.382       .  S
C1772      C1773   1.406       .  A
C1772      C1777   1.520   1_455  S
C1773      C1774   1.402   1_565  A
C1773      H1778   1.084       .  S
C1774      C1775   1.413       .  A
C1775      C1776   1.414       .  A
C1775      C1779   1.516       .  S
C1776      H1780   1.083       .  S
C1777      F1790   1.385       .  S
C1777      F1791   1.382       .  S
C1777      F1792   1.382       .  S
C1779      F1787   1.382       .  S
C1779      F1788   1.384       .  S
C1779      F1789   1.384       .  S
C1793      C1794   1.400   1_545  A
C1793      C1798   1.403   1_545  A
C1793      H1803   1.083       .  S
C1794      C1799   1.474   1_565  S
C1794      C1795   1.415       .  A
C1795      C1796   1.404       .  A
C1795      C1800   1.522       .  S
C1796      C1797   1.405       .  A
C1796      H1801   1.084       .  S
C1797      C1798   1.414       .  A
C1798      C1802   1.516   1_565  S
C1799      C1804   1.412   1_545  A
C1799      C1808   1.402       .  A
C1800      F1816   1.382       .  S
C1800      F1817   1.382       .  S
C1800      F1818   1.385       .  S
C1802      F1813   1.385       .  S
C1802      F1814   1.383       .  S
C1802      F1815   1.380   1_545  S
C1804      C1805   1.401   1_565  A
C1804      C1809   1.520       .  S
C1805      C1806   1.405       .  A
C1805      H1810   1.084   1_545  S
C1806      C1807   1.415       .  A
C1807      C1808   1.404       .  A
C1807      C1811   1.518       .  S
C1808      H1812   1.083       .  S
C1809      F1822   1.385       .  S
C1809      F1823   1.382       .  S
C1809      F1824   1.383       .  S
C1811      F1819   1.385       .  S
C1811      F1820   1.378       .  S
C1811      F1821   1.383       .  S
C1825      C1826   1.404       .  A
C1825      C1830   1.412       .  A
C1825      H1835   1.083       .  S
C1826      C1831   1.488       .  S
C1826      C1827   1.413       .  A
C1827      C1828   1.405       .  A
C1827      C1832   1.520       .  S
C1828      C1829   1.408       .  A
C1828      H1833   1.083       .  S
C1829      C1830   1.420       .  A
C1830      C1834   1.516       .  S
C1831      C1836   1.416       .  A
C1831      C1840   1.402       .  A
C1832      F1848   1.382       .  S
C1832      F1849   1.382       .  S
C1832      F1850   1.385       .  S
C1834      F1845   1.384       .  S
C1834      F1846   1.381   1_565  S
C1834      F1847   1.383       .  S
C1836      C1837   1.408       .  A
C1836      C1841   1.520       .  S
C1837      C1838   1.405       .  A
C1837      H1842   1.083       .  S
C1838      C1839   1.420       .  A
C1839      C1840   1.411       .  A
C1839      C1843   1.514       .  S
C1840      H1844   1.083       .  S
C1841      F1854   1.384       .  S
C1841      F1855   1.382       .  S
C1841      F1856   1.382       .  S
C1843      F1851   1.385   1_565  S
C1843      F1852   1.384   1_565  S
C1843      F1853   1.381       .  S
C1857      C1858   1.400       .  A
C1857      C1862   1.410       .  A
C1857      H1867   1.083       .  S
C1858      C1863   1.484   1_655  S
C1858      C1859   1.413       .  A
C1859      C1860   1.404       .  A
C1859      C1864   1.521   1_655  S
C1860      C1861   1.410       .  A
C1860      H1865   1.082       .  S
C1861      C1862   1.426       .  A
C1862      C1866   1.519       .  S
C1863      C1868   1.414       .  A
C1863      C1872   1.393       .  A
C1864      F1880   1.382       .  S
C1864      F1881   1.381       .  S
C1864      F1882   1.385       .  S
C1866      F1877   1.385       .  S
C1866      F1878   1.380       .  S
C1866      F1879   1.381       .  S
C1868      C1869   1.412       .  A
C1868      C1873   1.518       .  S
C1869      C1870   1.410       .  A
C1869      H1874   1.083       .  S
C1870      C1871   1.433       .  A
C1871      C1872   1.402       .  A
C1871      C1875   1.526       .  S
C1872      H1876   1.083   1_455  S
C1873      F1886   1.385       .  S
C1873      F1887   1.382       .  S
C1873      F1888   1.382       .  S
C1875      F1883   1.385       .  S
C1875      F1884   1.383       .  S
C1875      F1885   1.384       .  S
C1889      C1890   1.403   1_545  A
C1889      C1894   1.410   1_545  A
C1889      H1899   1.083       .  S
C1890      C1895   1.484   1_565  S
C1890      C1891   1.416       .  A
C1891      C1892   1.404       .  A
C1891      C1896   1.521       .  S
C1892      C1893   1.402       .  A
C1892      H1897   1.082       .  S
C1893      C1894   1.420       .  A
C1894      C1898   1.519       .  S
C1895      C1900   1.418   1_545  A
C1895      C1904   1.400       .  A
C1896      F1912   1.382   1_565  S
C1896      F1913   1.382       .  S
C1896      F1914   1.385       .  S
C1898      F1909   1.385   1_565  S
C1898      F1910   1.383   1_565  S
C1898      F1911   1.382       .  S
C1900      C1901   1.410       .  A
C1900      C1905   1.520       .  S
C1901      C1902   1.402   1_565  A
C1901      H1906   1.083       .  S
C1902      C1903   1.416       .  A
C1903      C1904   1.405       .  A
C1903      C1907   1.519       .  S
C1904      H1908   1.083       .  S
C1905      F1918   1.384       .  S
C1905      F1919   1.382       .  S
C1905      F1920   1.382       .  S
C1907      F1915   1.383       .  S
C1907      F1916   1.383       .  S
C1907      F1917   1.384       .  S
C1921      C1922   1.402       .  A
C1921      C1926   1.411       .  A
C1921      H1931   1.083       .  S
C1922      C1927   1.489       .  S
C1922      C1923   1.416       .  A
C1923      C1924   1.407       .  A
C1923      C1928   1.520       .  S
C1924      C1925   1.405       .  A
C1924      H1929   1.083       .  S
C1925      C1926   1.424       .  A
C1926      C1930   1.521       .  S
C1927      C1932   1.412       .  A
C1927      C1936   1.401       .  A
C1928      F1944   1.382       .  S
C1928      F1945   1.382       .  S
C1928      F1946   1.385       .  S
C1930      F1941   1.383       .  S
C1930      F1942   1.385       .  S
C1930      F1943   1.383       .  S
C1932      C1933   1.409       .  A
C1932      C1937   1.520       .  S
C1933      C1934   1.414       .  A
C1933      H1938   1.082       .  S
C1934      C1935   1.426       .  A
C1935      C1936   1.410       .  A
C1935      C1939   1.518       .  S
C1936      H1940   1.083       .  S
C1937      F1950   1.385       .  S
C1937      F1951   1.382       .  S
C1937      F1952   1.382       .  S
C1939      F1947   1.385       .  S
C1939      F1948   1.383       .  S
C1939      F1949   1.382       .  S
