geometry optimzed in LAMMPS
_audit_creation_date              2020-12-01 
_audit_creation_method            'lammps2cif' 
_symmetry_space_group_name_H-M    'P1' 
_symmetry_Int_Tables_number       1 
_symmetry_cell_setting            triclinic 
loop_ 
_symmetry_equiv_pos_as_xyz 
  x,y,z 
_cell_length_a                    56.56674987 
_cell_length_b                    56.52849279000711 
_cell_length_c                    28.126039317563933 
_cell_angle_alpha                 89.89885847470994 
_cell_angle_beta                  89.6685444246194 
_cell_angle_gamma                 119.36215988767886 
loop_ 
_atom_site_label 
_atom_site_type_symbol 
_atom_site_fract_x 
_atom_site_fract_y 
_atom_site_fract_z 
_atom_site_charge 
Fe1        Fe  0.43588304  0.10411159  0.21363980     1.65800
Fe2        Fe  0.38489267  0.10215511  0.14415234     1.73200
Fe3        Fe  0.41010326  0.14658249  0.23589999     1.54400
O4          O  0.41115545  0.12794984  0.29704894    -0.81900
O5          O  0.39078482  0.13968992  0.12008732    -0.80200
O6          O  0.42372939  0.09681827  0.28411003    -0.84400
O7          O  0.46762255  0.14145464  0.23300438    -0.79200
O8          O  0.36888823  0.12656890  0.24278444    -0.81000
O9          O  0.41693120  0.10842755  0.09849342    -0.83700
C10         C  0.46591526  0.16073841  0.25240776     0.97000
C11         C  0.41644954  0.10984586  0.31171624     1.04500
O12         O  0.41019616  0.11753313  0.19790041    -1.12700
O13         O  0.37434199  0.06221649  0.16091698    -0.75200
O14         O  0.40872301  0.06411238  0.20117429    -0.78600
O15         O  0.45127139  0.16922887  0.23388602    -0.79300
C16         C  0.38534415  0.05077858  0.18366128     0.95900
O17         O  0.45027477  0.11099939  0.14496167    -0.77300
O18         O  0.35138255  0.09535719  0.18604553    -0.82500
C19         C  0.40109367  0.16352447  0.13705067     0.98500
C20         C  0.34891997  0.10665238  0.22355265     1.04500
O21         O  0.40939311  0.16882332  0.17927002    -0.78100
C22         C  0.44107210  0.11269173  0.10473735     1.02800
Fe23       Fe  0.32855751  0.40114588  0.78957882     1.65800
Fe24       Fe  0.28547680  0.40801108  0.86436282     1.73200
Fe25       Fe  0.26120032  0.36511242  0.77164146     1.54400
O26         O  0.27593812  0.38861906  0.71161982    -0.81900
O27         O  0.25064765  0.37146869  0.88399999    -0.80200
O28         O  0.31978489  0.40046007  0.71779746    -0.84400
O29         O  0.31824166  0.36106744  0.78926300    -0.79200
O30         O  0.23769377  0.38288587  0.78447553    -0.81000
O31         O  0.30775086  0.39559902  0.90660349    -0.83700
C32         C  0.30265280  0.34540340  0.75773883     0.97000
C33         C  0.29957559  0.39775478  0.69402835     1.04500
O34         O  0.29187288  0.39167749  0.80850458    -1.12700
O35         O  0.31870469  0.44698036  0.84951441    -0.75200
O36         O  0.34056088  0.44164733  0.78806896    -0.78600
O37         O  0.28000654  0.34375949  0.74910591    -0.79300
C38         C  0.33553398  0.45669334  0.81480065     0.95900
O39         O  0.34203155  0.40272606  0.85843821    -0.77300
O40         O  0.26281068  0.42058620  0.82496165    -0.82500
C41         C  0.23907512  0.34684116  0.86958590     0.98500
C42         C  0.24385128  0.40682361  0.79611862     1.04500
O43         O  0.24540066  0.34063375  0.83010283    -0.78100
C44         C  0.32992858  0.39562444  0.89837883     1.02800
Fe45       Fe  0.39953420  0.34111257  0.55710827     1.65800
Fe46       Fe  0.40475785  0.29797363  0.48028955     1.73200
Fe47       Fe  0.36309459  0.27340999  0.57484184     1.54400
O48         O  0.38821588  0.28671626  0.63259751    -0.81900
O49         O  0.36727986  0.26344908  0.46310283    -0.80200
O50         O  0.40206031  0.33121441  0.62710351    -0.84400
O51         O  0.35999820  0.33168683  0.56617910    -0.79200
O52         O  0.37877179  0.24885189  0.55602528    -0.81000
O53         O  0.39228285  0.32082111  0.43978934    -0.83700
C54         C  0.34534164  0.31558544  0.59840400     0.97000
C55         C  0.39853363  0.31038784  0.65021578     1.04500
O56         O  0.38931081  0.30446792  0.53727015    -1.12700
O57         O  0.44425844  0.33090416  0.49176861    -0.75200
O58         O  0.43997474  0.35417321  0.55150142    -0.78600
O59         O  0.34364812  0.29261678  0.60367683    -0.79300
C60         C  0.45457267  0.34905904  0.52390605     0.95900
O61         O  0.39735107  0.35398157  0.48908290    -0.77300
O62         O  0.41752296  0.27502561  0.51903837    -0.82500
C63         C  0.34267779  0.25260101  0.47833461     0.98500
C64         C  0.40303090  0.25526498  0.54648043     1.04500
O65         O  0.33710231  0.25928741  0.51817366    -0.78100
C66         C  0.39075182  0.34211351  0.44908540     1.02800
Fe67       Fe  0.06769661  0.40634069  0.72453605     1.65800
Fe68       Fe  0.11457917  0.41205944  0.64396264     1.73200
Fe69       Fe  0.09833342  0.36881087  0.73830085     1.54400
O70         O  0.09696282  0.38668186  0.80096463    -0.81900
O71         O  0.10660092  0.37483400  0.61590359    -0.80200
O72         O  0.09002905  0.42157231  0.78552616    -0.84400
O73         O  0.04394886  0.37054129  0.76140955    -0.79200
O74         O  0.13916226  0.39331152  0.73958839    -0.81000
O75         O  0.07901230  0.40646743  0.60895781    -0.83700
C76         C  0.04226842  0.34744574  0.76586487     0.97000
C77         C  0.09661366  0.40812959  0.81359422     1.04500
O78         O  0.09346935  0.39533846  0.70154941    -1.12700
O79         O  0.12586348  0.45096704  0.66848113    -0.75200
O80         O  0.08685835  0.44498063  0.69520026    -0.78600
O81         O  0.05763811  0.34133339  0.74277340    -0.79300
C82         C  0.11172099  0.46049997  0.68660268     0.95900
O83         O  0.04550760  0.39115902  0.66374693    -0.77300
O84         O  0.15136550  0.41859354  0.67362776    -0.82500
C85         C  0.10212401  0.35255234  0.63497179     0.98500
C86         C  0.15707354  0.41084676  0.71243860     1.04500
O87         O  0.10032672  0.34857145  0.67946027    -0.78100
C88         C  0.05381273  0.39549321  0.62072639     1.02800
Fe89       Fe  0.17110735  0.11435129  0.27745064     1.65800
Fe90       Fe  0.21230479  0.10647435  0.35656384     1.73200
Fe91       Fe  0.23908527  0.14832840  0.26123150     1.54400
O92         O  0.22370385  0.12559170  0.20145076    -0.81900
O93         O  0.24637570  0.14296250  0.37796386    -0.80200
O94         O  0.18065595  0.11561171  0.20565408    -0.84400
O95         O  0.18127848  0.15462062  0.27337028    -0.79200
O96         O  0.26018902  0.12792455  0.27214637    -0.81000
O97         O  0.18877581  0.11831689  0.39613288    -0.83700
C98         C  0.20002761  0.17177084  0.24664635     0.97000
C99         C  0.20144789  0.11957078  0.18176772     1.04500
O100        O  0.20749733  0.12306134  0.29870614    -1.12700
O101        O  0.17926655  0.06779159  0.34061218    -0.75200
O102        O  0.15823392  0.07347508  0.27840539    -0.78600
O103        O  0.22232591  0.17189506  0.24077481    -0.79300
C104        C  0.16215428  0.05823187  0.30671867     0.95900
O105        O  0.15640619  0.11309062  0.34560179    -0.77300
O106        O  0.23683055  0.09383384  0.32267444    -0.82500
C107        C  0.26035537  0.16688563  0.36056062     0.98500
C108        C  0.25562045  0.10603179  0.29218639     1.04500
O109        O  0.25701286  0.17291187  0.31860508    -0.78100
C110        C  0.16690661  0.11842596  0.38664265     1.02800
Fe111      Fe  0.16818044  0.08125775  0.88923387     1.65800
Fe112      Fe  0.21151061  0.12549018  0.80724864     1.73200
Fe113      Fe  0.23553356  0.10865055  0.90448438     1.54400
O114        O  0.21624257  0.10909445  0.96602782    -0.81900
O115        O  0.23932081  0.11464577  0.78143875    -0.80200
O116        O  0.17525262  0.10392111  0.95054280    -0.84400
O117        O  0.17794429  0.05611828  0.92823217    -0.79200
O118        O  0.25350994  0.14994068  0.90413376    -0.81000
O119        O  0.18100202  0.09044667  0.77280041    -0.83700
C120        C  0.19853391  0.05314858  0.93414083     0.97000
C121        C  0.19480262  0.10943273  0.97879337     1.04500
O122        O  0.20535201  0.10506518  0.86648638    -1.12700
O123        O  0.18596686  0.14004852  0.83007153    -0.75200
O124        O  0.15135231  0.10282353  0.85807745    -0.78600
O125        O  0.22038677  0.06742915  0.91140607    -0.79300
C126        C  0.16281576  0.12807227  0.84983069     0.95900
O127        O  0.16095224  0.05799791  0.82873842    -0.77300
O128        O  0.24295163  0.16167552  0.83503088    -0.82500
C129        C  0.25703196  0.11043558  0.80165200     0.98500
C130        C  0.25596367  0.16765164  0.87405228     1.04500
O131        O  0.25812752  0.10896209  0.84647018    -0.78100
C132        C  0.16634788  0.06548380  0.78533607     1.02800
Fe133      Fe  0.05979385  0.16954274  0.45448639     1.65800
Fe134      Fe  0.10941372  0.21599635  0.52393420     1.73200
Fe135      Fe  0.08437307  0.23647113  0.43305291     1.54400
O136        O  0.08893244  0.22103468  0.37029620    -0.81900
O137        O  0.10755790  0.25070076  0.54287838    -0.80200
O138        O  0.06340922  0.17650552  0.38138868    -0.84400
O139        O  0.02717296  0.17611474  0.45748881    -0.79200
O140        O  0.12596432  0.25990085  0.43505309    -0.81000
O141        O  0.07662633  0.19328372  0.56967299    -0.83700
C142        C  0.02409266  0.19184950  0.42935140     0.97000
C143        C  0.07572960  0.19711504  0.35444343     1.04500
O144        O  0.08465011  0.20737239  0.47024961    -1.12700
O145        O  0.11699232  0.18369201  0.51080617    -0.75200
O146        O  0.09100481  0.16090054  0.44970123    -0.78600
O147        O  0.04290732  0.21603411  0.42226620    -0.79300
C148        C  0.11110243  0.16702264  0.47656455     0.95900
O149        O  0.05182120  0.15704897  0.52494352    -0.77300
O150        O  0.14259994  0.23953543  0.48124036    -0.82500
C151        C  0.09466035  0.26247170  0.52854967     0.98500
C152        C  0.14550918  0.25688844  0.44961753     1.04500
O153        O  0.07982710  0.25500754  0.49203927    -0.78100
C154        C  0.05632003  0.16965863  0.56411682     1.02800
Fe155      Fe  0.32757044  0.43964286  0.39856882     1.65800
Fe156      Fe  0.28445860  0.39154497  0.32194132     1.73200
Fe157      Fe  0.25973754  0.40834803  0.41970422     1.54400
O158        O  0.28008356  0.41197234  0.48217124    -0.81900
O159        O  0.25557023  0.40090369  0.29716887    -0.80200
O160        O  0.32297476  0.42300690  0.46543789    -0.84400
O161        O  0.31635659  0.46639695  0.42583546    -0.79200
O162        O  0.24440434  0.36712925  0.42311389    -0.81000
O163        O  0.31289921  0.42481160  0.28229211    -0.83700
C164        C  0.29505901  0.46811230  0.43208179     0.97000
C165        C  0.30346131  0.41643946  0.49450291     1.04500
O166        O  0.29050343  0.41314138  0.38001928    -1.12700
O167        O  0.31245834  0.37965686  0.34221162    -0.75200
O168        O  0.34468912  0.41646331  0.37689604    -0.78600
O169        O  0.27165687  0.44899468  0.42230453    -0.79300
C170        C  0.33560753  0.39253318  0.36161923     0.95900
O171        O  0.33464064  0.45878584  0.33358582    -0.77300
O172        O  0.25459910  0.35578845  0.35314748    -0.82500
C173        C  0.23718806  0.40413764  0.31746304     0.98500
C174        C  0.24222873  0.34956139  0.39300483     1.04500
O175        O  0.23559792  0.40496092  0.36232186    -0.78100
C176        C  0.32848510  0.44978103  0.29155073     1.02800
Fe177      Fe  0.09397613  0.17258560  0.06027363     1.65800
Fe178      Fe  0.09136013  0.21804734  0.98387994     1.73200
Fe179      Fe  0.12935894  0.23976224  0.08442701     1.54400
O180        O  0.10959423  0.21786564  0.14450861    -0.81900
O181        O  0.12932584  0.24841666  0.96278370    -0.80200
O182        O  0.07808207  0.17587494  0.12418790    -0.84400
O183        O  0.12961315  0.18244073  0.09547205    -0.79200
O184        O  0.10439520  0.25597301  0.08616773    -0.81000
O185        O  0.09944603  0.19088221  0.94460791    -0.83700
C186        C  0.15178907  0.20377134  0.10383904     0.97000
C187        C  0.08954001  0.19471045  0.15445659     1.04500
O188        O  0.10498031  0.21028513  0.04261483    -1.12700
O189        O  0.05168971  0.18933742  0.99942459    -0.75200
O190        O  0.05540020  0.15580788  0.03206025    -0.78600
O191        O  0.15711967  0.22677767  0.08828205    -0.79300
C192        C  0.04098343  0.16581052  0.01753610     0.95900
O193        O  0.10989909  0.16773782  0.99755875    -0.77300
O194        O  0.08267660  0.24631791  0.01709295    -0.82500
C195        C  0.15012376  0.26575527  0.98499165     0.98500
C196        C  0.08866158  0.25832300  0.05722888     1.04500
O197        O  0.15210423  0.26526732  0.02975527    -0.78100
C198        C  0.10891590  0.17509635  0.95519068     1.02800
Fe199      Fe  0.10716933  0.44710335  0.10785274     1.65800
Fe200      Fe  0.09660450  0.39810168  0.18858327     1.73200
Fe201      Fe  0.13922249  0.41068390  0.09622147     1.54400
O202        O  0.11557508  0.40183824  0.03753355    -0.81900
O203        O  0.13217137  0.39790151  0.21052033    -0.80200
O204        O  0.10839872  0.43710385  0.03704714    -0.84400
O205        O  0.14782100  0.47513712  0.10412619    -0.79200
O206        O  0.11919290  0.36997699  0.11212741    -0.81000
O207        O  0.10964198  0.43340303  0.22762622    -0.83700
C208        C  0.16377945  0.47226801  0.07595287     0.97000
C209        C  0.11060583  0.41843334  0.01563876     1.04500
O210        O  0.11440074  0.41884839  0.13136541    -1.12700
O211        O  0.05899613  0.39533147  0.17259047    -0.75200
O212        O  0.06613736  0.42096282  0.10817764    -0.78600
O213        O  0.16281625  0.44958407  0.07063614    -0.79300
C214        C  0.05024279  0.40295362  0.13723897     0.95900
O215        O  0.10600328  0.46121260  0.17538667    -0.77300
O216        O  0.08216632  0.36151105  0.15282460    -0.82500
C217        C  0.15663999  0.40848302  0.19510032     0.98500
C218        C  0.09523980  0.35392386  0.12595447     1.04500
O219        O  0.16366036  0.41906165  0.15406322    -0.78100
C220        C  0.11043379  0.45567472  0.21712258     1.02800
Fe221      Fe  0.40097602  0.07547617  0.60570373     1.65800
Fe222      Fe  0.40101143  0.11935383  0.68815668     1.73200
Fe223      Fe  0.36578719  0.10834437  0.58623420     1.54400
O224        O  0.38379409  0.10474136  0.52443507    -0.81900
O225        O  0.36185230  0.10882044  0.70926592    -0.80200
O226        O  0.41704402  0.09621550  0.54358517    -0.84400
O227        O  0.36478685  0.05137424  0.56985394    -0.79200
O228        O  0.39309161  0.14881224  0.58597036    -0.81000
O229        O  0.39575571  0.08377511  0.72264219    -0.83700
C230        C  0.34220503  0.05087031  0.56426973     0.97000
C231        C  0.40426571  0.10223495  0.51355463     1.04500
O232        O  0.38907607  0.10092838  0.62710546    -1.12700
O233        O  0.44115345  0.13269312  0.67060571    -0.75200
O234        O  0.43960265  0.09715920  0.63479860    -0.78600
O235        O  0.33708146  0.06822124  0.58280261    -0.79300
C236        C  0.45294755  0.12134393  0.65016930     0.95900
O237        O  0.38560367  0.05251033  0.66610543    -0.77300
O238        O  0.40733926  0.15670107  0.66097492    -0.82500
C239        C  0.34334030  0.11056044  0.68657723     0.98500
C240        C  0.40521091  0.16494961  0.61978409     1.04500
O241        O  0.34407064  0.11282120  0.64168988    -0.78100
C242        C  0.38771869  0.05934610  0.70947585     1.02800
Fe243      Fe  0.43607780  0.34381294  0.94406913     1.65800
Fe244      Fe  0.38956421  0.29801543  0.02266920     1.73200
Fe245      Fe  0.41139920  0.27648547  0.92690962     1.54400
O246        O  0.41355868  0.29561993  0.86339525    -0.81900
O247        O  0.39696939  0.26741278  0.04679409    -0.80200
O248        O  0.41935662  0.33693262  0.87746306    -0.84400
O249        O  0.46598508  0.33594840  0.91917664    -0.79200
O250        O  0.37040919  0.25846226  0.92302147    -0.81000
O251        O  0.42355175  0.32563966  0.06244927    -0.83700
C252        C  0.47002653  0.31582265  0.91536049     0.97000
C253        C  0.41462689  0.31750191  0.84979717     1.04500
O254        O  0.41235685  0.30606356  0.96500417    -1.12700
O255        O  0.37745688  0.32647162  0.00757921    -0.75200
O256        O  0.40997697  0.35788783  0.96272674    -0.78600
O257        O  0.45244357  0.29197861  0.92699627    -0.79300
C258        C  0.38755891  0.34861264  0.98449700     0.95900
O259        O  0.45442220  0.35337434  0.00896379    -0.77300
O260        O  0.35437118  0.27000676  0.98608867    -0.82500
C261        C  0.40325840  0.25111034  0.02689438     0.98500
C262        C  0.35076823  0.25725056  0.94690991     1.04500
O263        O  0.40907524  0.25246642  0.98327785    -0.78100
C264        C  0.44724752  0.34494129  0.05131094     1.02800
C265        C  0.50662752  0.35978824  0.13052997    -0.06000
C266        C  0.02060265  0.38864938  0.12634167     0.00000
C267        C  0.00760577  0.40181453  0.10410462    -0.08600
C268        C  0.48212575  0.38690936  0.08854465    -0.06000
C269        C  0.46868635  0.35844372  0.08757769    -0.00100
C270        C  0.48040398  0.34456914  0.11112963    -0.08500
C271        C  0.46619565  0.31383301  0.11206797     0.61900
H272        H  0.01591837  0.35034585  0.14913718     0.12500
H273        H  0.47293758  0.39731128  0.07050827     0.12600
C274        C  0.02019550  0.43254675  0.10300925     0.62100
F275        F  0.48074260  0.30418654  0.13713055    -0.23100
F276        F  0.46294823  0.30417931  0.06606683    -0.20400
F277        F  0.44102794  0.30383154  0.13360740    -0.20100
F278        F  0.04153787  0.44382521  0.07091226    -0.20100
F279        F  0.02939907  0.44291185  0.14780653    -0.20500
F280        F  0.00152958  0.44040022  0.08957821    -0.23100
C281        C  0.08145806  0.32117295  0.06024407    -0.06000
C282        C  0.08321798  0.32560010  0.10957525     0.00000
C283        C  0.07906463  0.30438797  0.14078278    -0.08600
C284        C  0.07650163  0.28032738  0.12135998    -0.06000
C285        C  0.07905608  0.27749477  0.07198351    -0.00100
C286        C  0.07926290  0.29724830  0.04065006    -0.08500
C287        C  0.07916985  0.29412929  0.98706941     0.61900
H288        H  0.08402270  0.33759705  0.03704966     0.12500
H289        H  0.07528720  0.26461734  0.14502034     0.12600
C290        C  0.07975869  0.30822542  0.19420991     0.62100
F291        F  0.07758244  0.31484396  0.96359026    -0.23100
F292        F  0.05692629  0.26984704  0.97407926    -0.20400
F293        F  0.10268864  0.29444722  0.97231491    -0.20100
F294        F  0.05984582  0.31437922  0.20765178    -0.20100
F295        F  0.10484380  0.32916653  0.20747645    -0.20500
F296        F  0.07524943  0.28510731  0.21846296    -0.23100
C297        C  0.18050205  0.41743103  0.27222733    -0.06000
C298        C  0.17771485  0.40794435  0.22552271     0.00000
C299        C  0.19471871  0.39777841  0.20888117    -0.08600
C300        C  0.21367689  0.39709292  0.24014960    -0.06000
C301        C  0.21655001  0.40635371  0.28730081    -0.00100
C302        C  0.19984186  0.41723684  0.30349436    -0.08500
C303        C  0.20233535  0.42910523  0.35291852     0.61900
H304        H  0.16737676  0.42524889  0.28389244     0.12500
H305        H  0.22640208  0.38899417  0.22771408     0.12600
C306        C  0.19243718  0.38688773  0.15868922     0.62100
F307        F  0.18630231  0.44117622  0.35845635    -0.23100
F308        F  0.22891262  0.44880887  0.36090891    -0.20400
F309        F  0.19414607  0.40879165  0.38683621    -0.20100
F310        F  0.20100469  0.40790197  0.12611511    -0.20100
F311        F  0.16582511  0.36771179  0.14957200    -0.20500
F312        F  0.20822351  0.37462862  0.15214325    -0.23100
C313        C  0.28574615  0.48730877  0.50334266    -0.06000
C314        C  0.29813611  0.49192914  0.45810888     0.00000
C315        C  0.31963071  0.02028591  0.44408615    -0.08600
C316        C  0.33253759  0.03891561  0.48070007    -0.06000
C317        C  0.32381524  0.03252992  0.52802754    -0.00100
C318        C  0.29949379  0.00862393  0.53869860    -0.08500
C319        C  0.28319679  0.50282575  0.58731573     0.61900
H320        H  0.26906095  0.46733433  0.51183119     0.12500
H321        H  0.35017130  0.05834812  0.47284616     0.12600
C322        C  0.32790097  0.02854270  0.39272626     0.62100
F323        F  0.25983720  0.47785408  0.59039787    -0.23100
F324        F  0.27968928  0.02369923  0.59687233    -0.20400
F325        F  0.30535363  0.00597219  0.62176201    -0.20100
F326        F  0.30550068  0.02489460  0.36735096    -0.20100
F327        F  0.33809540  0.01316842  0.37239970    -0.20500
F328        F  0.34754262  0.05555245  0.38909247    -0.23100
C329        C  0.19478392  0.28617092  0.46122627    -0.06000
C330        C  0.17277219  0.27547495  0.43012356     0.00000
C331        C  0.17690427  0.28464446  0.38214394    -0.08600
C332        C  0.20138076  0.30777198  0.36967598    -0.06000
C333        C  0.22188751  0.32103576  0.40312390    -0.00100
C334        C  0.21960623  0.30867215  0.44802598    -0.08500
C335        C  0.24336509  0.31897213  0.48134318     0.61900
H336        H  0.19194764  0.27801635  0.49698460     0.12500
H337        H  0.20369687  0.31680942  0.33473206     0.12600
C338        C  0.15551339  0.27084499  0.34431262     0.62100
F339        F  0.26590694  0.32251289  0.45597833    -0.23100
F340        F  0.23885083  0.30075836  0.51788631    -0.20400
F341        F  0.24802496  0.34321183  0.50118504    -0.20100
F342        F  0.13634081  0.27919983  0.34774953    -0.20100
F343        F  0.14317409  0.24296969  0.34970074    -0.20500
F344        F  0.16684534  0.27718740  0.29914173    -0.23100
C345        C  0.07737713  0.17228663  0.28301649    -0.06000
C346        C  0.07419567  0.19342256  0.30247859     0.00000
C347        C  0.07068636  0.21138006  0.27171861    -0.08600
C348        C  0.07471132  0.21021147  0.22302748    -0.06000
C349        C  0.07988283  0.19045764  0.20380773    -0.00100
C350        C  0.07999791  0.17029558  0.23356638    -0.08500
C351        C  0.08401149  0.14764167  0.21338009     0.61900
H352        H  0.07901865  0.15811617  0.30690422     0.12500
H353        H  0.07434156  0.22528351  0.19954373     0.12600
C354        C  0.06302680  0.23219116  0.28852931     0.62100
F355        F  0.08431245  0.13070554  0.24868059    -0.23100
F356        F  0.10835475  0.15839053  0.18886681    -0.20400
F357        F  0.06303609  0.13215527  0.18275140    -0.20100
F358        F  0.08617776  0.25682776  0.29544394    -0.20100
F359        F  0.04823521  0.22417885  0.33004793    -0.20500
F360        F  0.04696543  0.23541453  0.25512183    -0.23100
C361        C  0.02554749  0.17264006  0.62405691    -0.06000
C362        C  0.03529565  0.15675732  0.60230242     0.00000
C363        C  0.02032746  0.12822611  0.60837696    -0.08600
C364        C  0.49621210  0.12176719  0.63089857    -0.06000
C365        C  0.48302816  0.13684753  0.64100614    -0.00100
C366        C  0.99952305  0.16092740  0.64560718    -0.08500
C367        C  0.99029306  0.17987188  0.66664123     0.61900
H368        H  0.03742842  0.19447287  0.62004721     0.12500
H369        H  0.48536066  0.10002028  0.63676783     0.12600
C370        C  0.03091516  0.10950914  0.59261074     0.62100
F371        F  0.01117743  0.20648870  0.66815383    -0.23100
F372        F  0.47827756  0.18122064  0.69322566    -0.20400
F373        F  0.46394519  0.17728252  0.61715530    -0.20100
F374        F  0.05872938  0.12330071  0.58561815    -0.20100
F375        F  0.01835926  0.09687311  0.55082476    -0.20500
F376        F  0.52470662  0.09366856  0.62786242    -0.23100
C377        C  0.32274836  0.23181769  0.87817060    -0.06000
C378        C  0.32321996  0.23942059  0.92620350     0.00000
C379        C  0.29834771  0.22757057  0.95204509    -0.08600
C380        C  0.27538428  0.20557134  0.93134090    -0.06000
C381        C  0.27632027  0.19593498  0.88558213    -0.00100
C382        C  0.29988317  0.21029014  0.85744043    -0.08500
C383        C  0.30172504  0.20167360  0.80698918     0.61900
H384        H  0.34121144  0.24171434  0.85726817     0.12500
H385        H  0.25687717  0.19450215  0.95197307     0.12600
C386        C  0.29580669  0.23738327  0.00103292     0.62100
F387        F  0.32686086  0.21825049  0.78631943    -0.23100
F388        F  0.28232470  0.20299624  0.77920559    -0.20400
F389        F  0.29749360  0.17541617  0.80704854    -0.20100
F390        F  0.30365648  0.26470778  0.99873724    -0.20100
F391        F  0.31190345  0.23339489  0.03314906    -0.20500
F392        F  0.26937745  0.22369145  0.01803028    -0.23100
C393        C  0.28426107  0.12130777  0.72714371    -0.06000
C394        C  0.27801364  0.10846243  0.77187143     0.00000
C395        C  0.29250390  0.09514893  0.78712427    -0.08600
C396        C  0.31332772  0.09631776  0.75781071    -0.06000
C397        C  0.32003905  0.10971776  0.71358596    -0.00100
C398        C  0.30481013  0.12213519  0.69742179    -0.08500
C399        C  0.30994257  0.13653041  0.64949375     0.61900
H400        H  0.27302611  0.13121295  0.71573736     0.12500
H401        H  0.32467772  0.08656486  0.76945166     0.12600
C402        C  0.28591547  0.07910567  0.83342732     0.62100
F403        F  0.29445203  0.14916232  0.64375463    -0.23100
F404        F  0.30336608  0.11793059  0.61319142    -0.20400
F405        F  0.33681597  0.15629220  0.64515283    -0.20100
F406        F  0.25845179  0.06073009  0.83565245    -0.20100
F407        F  0.29327618  0.09648184  0.87182625    -0.20500
F408        F  0.29966103  0.06458000  0.83719615    -0.23100
C409        C  0.12055007  0.12995261  0.86919172    -0.06000
C410        C  0.14914155  0.14362745  0.86657865     0.00000
C411        C  0.16377378  0.16989364  0.88743754    -0.08600
C412        C  0.14932166  0.18043723  0.91246351    -0.06000
C413        C  0.12107416  0.16584204  0.91773724    -0.00100
C414        C  0.10626405  0.14066327  0.89446466    -0.08500
C415        C  0.07554289  0.12508943  0.89732047     0.61900
H416        H  0.10945170  0.11014395  0.85294069     0.12500
H417        H  0.16015784  0.19964127  0.93082950     0.12600
C418        C  0.19458303  0.18612636  0.88663487     0.62100
F419        F  0.06482140  0.10086999  0.87266625    -0.23100
F420        F  0.06531609  0.14069328  0.87791028    -0.20400
F421        F  0.06714486  0.11924055  0.94422712    -0.20100
F422        F  0.20380165  0.19221518  0.84017768    -0.20100
F423        F  0.20511874  0.17129053  0.90799695    -0.20500
F424        F  0.20437348  0.21041033  0.91088324    -0.23100
C425        C  0.17831397  0.48513084  0.99320432    -0.06000
C426        C  0.17974008  0.49373265  0.04068715     0.00000
C427        C  0.18626122  0.02595947  0.05940330    -0.08600
C428        C  0.19200606  0.04301297  0.01970604    -0.06000
C429        C  0.19758394  0.03600203  0.97473638    -0.00100
C430        C  0.20049632  0.01274389  0.97047270    -0.08500
C431        C  0.21149628  0.00717907  0.92521598     0.61900
H432        H  0.16885313  0.46366377  0.98584989     0.12500
H433        H  0.19217299  0.06212561  0.02398406     0.12600
C434        C  0.19497404  0.53217560  0.10109029     0.62100
F435        F  0.21117103  0.98258054  0.92740313    -0.23100
F436        F  0.23806017  0.02742409  0.91854866    -0.20400
F437        F  0.19622072  0.00673509  0.88666149    -0.20100
F438        F  0.20361568  0.51820644  0.13019605    -0.20100
F439        F  0.17040844  0.52860540  0.11785437    -0.20500
F440        F  0.20677647  0.06231282  0.11356248    -0.23100
C441        C  0.11903939  0.01803992  0.28219357    -0.06000
C442        C  0.14587924  0.02827785  0.29804208     0.00000
C443        C  0.15711592  0.01059000  0.29818859    -0.08600
C444        C  0.14373239  0.48552995  0.27628421    -0.06000
C445        C  0.11892742  0.47726689  0.25341042    -0.00100
C446        C  0.10617496  0.49330327  0.25793331    -0.08500
C447        C  0.07814162  0.48456717  0.23859946     0.61900
H448        H  0.10986832  0.03097041  0.28360804     0.12500
H449        H  0.15298947  0.47276039  0.27302408     0.12600
C450        C  0.18546935  0.01961674  0.31611739     0.62100
F451        F  0.06423960  0.49284690  0.26887245    -0.23100
F452        F  0.06296379  0.45663913  0.23463284    -0.20400
F453        F  0.08048250  0.49632681  0.19443217    -0.20100
F454        F  0.18712203  0.02637526  0.36365136    -0.20100
F455        F  0.20399690  0.04176495  0.29009945    -0.20500
F456        F  0.19244177  0.99942547  0.31173344    -0.23100
C457        C  0.21867560  0.13309112  0.05020665    -0.06000
C458        C  0.19363428  0.11546061  0.02948247     0.00000
C459        C  0.17069455  0.10017065  0.05888860    -0.08600
C460        C  0.17415843  0.10230061  0.10850988    -0.06000
C461        C  0.19979668  0.11834342  0.12919898    -0.00100
C462        C  0.22258978  0.13445698  0.09936904    -0.08500
C463        C  0.25119006  0.15293122  0.11795540     0.61900
H464        H  0.23581728  0.14488799  0.02685344     0.12500
H465        H  0.15689215  0.09063294  0.13162772     0.12600
C466        C  0.14305145  0.08095676  0.03831850     0.62100
F467        F  0.26110533  0.13753370  0.13900424    -0.23100
F468        F  0.26917112  0.16797061  0.08196949    -0.20400
F469        F  0.25116975  0.17109399  0.15066445    -0.20100
F470        F  0.14457987  0.06153815  0.01066619    -0.20100
F471        F  0.13435269  0.09545856  0.01074945    -0.20500
F472        F  0.12377723  0.06757342  0.07350328    -0.23100
C473        C  0.16545770  0.20637877  0.18680245    -0.06000
C474        C  0.16974359  0.20202554  0.13909203     0.00000
C475        C  0.18802463  0.19288304  0.12754558    -0.08600
C476        C  0.19995579  0.18614534  0.16485042    -0.06000
C477        C  0.19385382  0.18801461  0.21296476    -0.00100
C478        C  0.17742920  0.19968663  0.22428591    -0.08500
C479        C  0.17170260  0.20519826  0.27459032     0.61900
H480        H  0.15159905  0.21394694  0.19498580     0.12500
H481        H  0.21223317  0.17694760  0.15628207     0.12600
C482        C  0.19406979  0.18956140  0.07615432     0.62100
F483        F  0.17709526  0.23180768  0.27763063    -0.23100
F484        F  0.18753411  0.20160705  0.30795771    -0.20400
F485        F  0.14465500  0.18815762  0.28559393    -0.20100
F486        F  0.20393254  0.21412823  0.05259245    -0.20100
F487        F  0.17067334  0.17043557  0.05410653    -0.20500
F488        F  0.21331949  0.18132911  0.07249733    -0.23100
C489        C  0.16893475  0.15589768  0.43382367    -0.06000
C490        C  0.15450284  0.12825379  0.42249737     0.00000
C491        C  0.12729304  0.11255008  0.43799372    -0.08600
C492        C  0.11438909  0.12576824  0.45946543    -0.06000
C493        C  0.12797071  0.15401810  0.46624399    -0.00100
C494        C  0.15613009  0.16924107  0.45519946    -0.08500
C495        C  0.17207429  0.19977157  0.46133978     0.61900
H496        H  0.18982572  0.16747771  0.42185455     0.12500
H497        H  0.09307733  0.11428306  0.46891756     0.12600
C498        C  0.11212576  0.08200397  0.43198604     0.62100
F499        F  0.19911315  0.21037498  0.44869041    -0.23100
F500        F  0.17109039  0.20639444  0.50832827    -0.20400
F501        F  0.16113819  0.21172444  0.43262229    -0.20100
F502        F  0.12704555  0.07113303  0.45181249    -0.20100
F503        F  0.10817329  0.07545242  0.38431399    -0.20500
F504        F  0.08701409  0.07022609  0.45435862    -0.23100
C505        C  0.07432960  0.28290293  0.57974647    -0.06000
C506        C  0.09712620  0.28599483  0.55487404     0.00000
C507        C  0.12112151  0.31162248  0.55335678    -0.08600
C508        C  0.12153415  0.33341136  0.57814343    -0.06000
C509        C  0.09907853  0.32997114  0.60482670    -0.00100
C510        C  0.07499044  0.30443241  0.60555091    -0.08500
C511        C  0.05019425  0.29977490  0.63395390     0.61900
H512        H  0.05618043  0.26318596  0.57975714     0.12500
H513        H  0.13968246  0.35310239  0.57813921     0.12600
C514        C  0.14599887  0.31599226  0.52534685     0.62100
F515        F  0.02791401  0.27475547  0.62445285    -0.23100
F516        F  0.04348025  0.31958369  0.62309021    -0.20400
F517        F  0.05566965  0.30067878  0.68185327    -0.20100
F518        F  0.13930887  0.30978695  0.47810135    -0.20100
F519        F  0.15557890  0.29953442  0.54334273    -0.20500
F520        F  0.16678215  0.34262910  0.52760708    -0.23100
C521        C  0.03315849  0.34463337  0.85075072    -0.06000
C522        C  0.02654978  0.33096490  0.80706499     0.00000
C523        C  0.50705335  0.31249328  0.80949125    -0.08600
C524        C  0.49023126  0.30297095  0.85014776    -0.06000
C525        C  0.49436570  0.32006777  0.88931220    -0.00100
C526        C  0.01614123  0.33452504  0.89031761    -0.08500
C527        C  0.02449304  0.35113169  0.93554663     0.61900
H528        H  0.05118478  0.36436764  0.85344186     0.12500
H529        H  0.47221656  0.28312269  0.84954928     0.12600
C530        C  0.50264834  0.29381010  0.76797883     0.62100
F531        F  0.05047505  0.35698056  0.94761756    -0.23100
F532        F  0.51125522  0.34955563  0.97514409    -0.20400
F533        F  0.02426653  0.37520678  0.92806153    -0.20100
F534        F  0.52547705  0.29113962  0.76197191    -0.20100
F535        F  0.99810987  0.30032392  0.72073666    -0.20500
F536        F  0.48072507  0.26818328  0.77559253    -0.23100
C537        C  0.15770000  0.00691696  0.70716884    -0.06000
C538        C  0.12495009  0.48987046  0.70144009     0.00000
C539        C  0.11018812  0.50289814  0.71753507    -0.08600
C540        C  0.12822300  0.03221881  0.73527916    -0.06000
C541        C  0.15547990  0.04373805  0.74855718    -0.00100
C542        C  0.17093957  0.03197173  0.73134258    -0.08500
C543        C  0.20126332  0.04571651  0.73941222     0.61900
H544        H  0.16904258  0.99678619  0.69749495     0.12500
H545        H  0.11678069  0.04186670  0.74728786     0.12600
C546        C  0.07992567  0.49097715  0.70956467     0.62100
F547        F  0.21282047  0.03150598  0.71893201    -0.23100
F548        F  0.20656206  0.04787409  0.78760469    -0.20400
F549        F  0.21334638  0.07133504  0.71915820    -0.20100
F550        F  0.06547652  0.46914092  0.73975806    -0.20100
F551        F  0.07381987  0.48279365  0.66282604    -0.20500
F552        F  0.07151408  0.50983374  0.71817078    -0.23100
C553        C  0.12033406  0.40774698  0.88549561    -0.06000
C554        C  0.10324914  0.41597528  0.86378088     0.00000
C555        C  0.09010159  0.42690134  0.89186772    -0.08600
C556        C  0.09315424  0.42731908  0.94141964    -0.06000
C557        C  0.10847178  0.41694756  0.96335026    -0.00100
C558        C  0.12292449  0.40746850  0.93479977    -0.08500
C559        C  0.14079606  0.39667857  0.95515254     0.61900
H560        H  0.13083656  0.40020465  0.86318850     0.12500
H561        H  0.08289769  0.43514542  0.96366524     0.12600
C562        C  0.07243324  0.43739673  0.87027729     0.62100
F563        F  0.15487435  0.39148844  0.92003810    -0.23100
F564        F  0.12490484  0.37254260  0.97911687    -0.20400
F565        F  0.15976676  0.41537556  0.98573653    -0.20100
F566        F  0.06131111  0.44663255  0.90459044    -0.20100
F567        F  0.05128754  0.41688759  0.84549017    -0.20500
F568        F  0.08791034  0.45883730  0.83986296    -0.23100
C569        C  0.42633944  0.20377388  0.56396303    -0.06000
C570        C  0.41544138  0.19413611  0.60960204     0.00000
C571        C  0.40853484  0.21022673  0.63870219    -0.08600
C572        C  0.40697558  0.23191558  0.61733315    -0.06000
C573        C  0.41344774  0.23858142  0.56899107    -0.00100
C574        C  0.42586868  0.22620551  0.54318872    -0.08500
C575        C  0.43674740  0.23530789  0.49320529     0.61900
H576        H  0.43330236  0.19225730  0.54327618     0.12500
H577        H  0.39916725  0.24291820  0.63760243     0.12600
C578        C  0.40227039  0.20428345  0.69133822     0.62100
F579        F  0.44967686  0.22173796  0.47610208    -0.23100
F580        F  0.45559803  0.26257932  0.49297317    -0.20400
F581        F  0.41576566  0.23073213  0.46290796    -0.20100
F582        F  0.42417479  0.20451419  0.71337120    -0.20100
F583        F  0.37957907  0.17921616  0.69820695    -0.20500
F584        F  0.39756788  0.22354901  0.71313233    -0.23100
C585        C  0.32749969  0.22538285  0.40384942    -0.06000
C586        C  0.32031825  0.23093876  0.44887351     0.00000
C587        C  0.29271468  0.21486469  0.46447340    -0.12200
C588        C  0.27406920  0.19391835  0.43480110    -0.06000
C589        C  0.28150397  0.18876916  0.39010323    -0.00100
C590        C  0.30872278  0.20469886  0.37423461    -0.08500
C591        C  0.31827155  0.19947381  0.32671390     0.61900
H592        H  0.34823381  0.23748446  0.39157985     0.12500
H593        H  0.25312360  0.18149526  0.44589978     0.12600
C594        C  0.28233459  0.21939885  0.51171457     0.62100
F595        F  0.34616804  0.21462439  0.32131446    -0.23100
F596        F  0.30663090  0.20633138  0.28993973    -0.20400
F597        F  0.31106944  0.17235658  0.32323766    -0.20100
F598        F  0.28585269  0.24539719  0.51296199    -0.20100
F599        F  0.29606606  0.21563564  0.54889793    -0.20500
F600        F  0.25495946  0.20148717  0.51861297    -0.23100
C601        C  0.49508362  0.39190871  0.54793977    -0.06000
C602        C  0.48451145  0.36485728  0.53266406     0.00000
C603        C  0.50110488  0.35252736  0.53677254    -0.08600
C604        C  0.02386975  0.36110955  0.56263154    -0.06000
C605        C  0.03271645  0.38656588  0.58343591    -0.00100
C606        C  0.01810380  0.40045562  0.57495868    -0.08500
C607        C  0.02691626  0.42798588  0.59693984     0.61900
H608        H  0.48275770  0.40158121  0.54372239     0.12500
H609        H  0.03551217  0.35096462  0.56939956     0.12600
C610        C  0.49161865  0.32392159  0.51993487     0.62100
F611        F  0.51457019  0.44529114  0.57272554    -0.23100
F612        F  0.05381780  0.44548687  0.58568211    -0.20400
F613        F  0.02393579  0.42533764  0.64581989    -0.20100
F614        F  0.48539737  0.32195427  0.47211323    -0.20100
F615        F  0.46901486  0.30628158  0.54602149    -0.20500
F616        F  0.00665649  0.30928712  0.53340348    -0.23100
C617        C  0.43311040  0.32520221  0.76911746    -0.06000
C618        C  0.41120380  0.32015997  0.79908809     0.00000
C619        C  0.38569247  0.31347827  0.77988952    -0.08600
C620        C  0.38231332  0.30983008  0.73066404    -0.06000
C621        C  0.40390821  0.31370327  0.70096882    -0.00100
C622        C  0.42998432  0.32273609  0.71964708    -0.08500
C623        C  0.45402459  0.32930852  0.68741161     0.61900
H624        H  0.45248070  0.33038715  0.78493054     0.12500
H625        H  0.36285233  0.30421039  0.71478616     0.12600
C626        C  0.36244359  0.31057048  0.81112443     0.62100
F627        F  0.47784770  0.33898394  0.71280023    -0.23100
F628        F  0.45731404  0.34906117  0.65480950    -0.20400
F629        F  0.44962941  0.30619651  0.66335832    -0.20100
F630        F  0.36959877  0.33515754  0.83251102    -0.20100
F631        F  0.35670691  0.29125259  0.84595929    -0.20500
F632        F  0.33907250  0.30286832  0.78521700    -0.23100
C633        C  0.33723195  0.35081393  0.38353844    -0.06000
C634        C  0.35166257  0.37850442  0.37140269     0.00000
C635        C  0.38040003  0.39261406  0.37620734    -0.08600
C636        C  0.39306919  0.37943276  0.39865864    -0.06000
C637        C  0.37818249  0.35245118  0.41449701    -0.00100
C638        C  0.34995530  0.33756654  0.40532986    -0.08500
C639        C  0.33297582  0.30829807  0.42174239     0.61900
H640        H  0.31542646  0.34006914  0.37927216     0.12500
H641        H  0.41458552  0.39060975  0.40612726     0.12600
C642        C  0.39779958  0.42166006  0.35899066     0.62100
F643        F  0.30582015  0.29775046  0.41090158    -0.23100
F644        F  0.33498950  0.30665100  0.47049086    -0.20400
F645        F  0.34215669  0.29248847  0.39958269    -0.20100
F646        F  0.39679657  0.43943579  0.39157861    -0.20100
F647        F  0.38872254  0.42519969  0.31536914    -0.20500
F648        F  0.42463156  0.42807666  0.35336282    -0.23100
C649        C  0.19051357  0.42732994  0.77696148    -0.06000
C650        C  0.18537018  0.42115320  0.72823476     0.00000
C651        C  0.20427452  0.41752248  0.70058632    -0.08600
C652        C  0.22536464  0.41601376  0.72410803    -0.06000
C653        C  0.22794841  0.41810754  0.77383356    -0.00100
C654        C  0.21164204  0.42579925  0.80044692    -0.08500
C655        C  0.21519164  0.43013839  0.85370067     0.61900
H656        H  0.17615692  0.43071075  0.79743570     0.12500
H657        H  0.23869150  0.41088335  0.70427239     0.12600
C658        C  0.20095342  0.41309122  0.64733657     0.62100
F659        F  0.19701025  0.43724897  0.87292638    -0.23100
F660        F  0.24111251  0.45083295  0.86312212    -0.20400
F661        F  0.21119659  0.40657661  0.87587992    -0.20100
F662        F  0.20073276  0.43506220  0.62609129    -0.20100
F663        F  0.17688626  0.38974324  0.63778950    -0.20500
F664        F  0.22191708  0.41042175  0.62722162    -0.23100
C665        C  0.18031077  0.27882988  0.91483911    -0.06000
C666        C  0.17328322  0.28688045  0.95719288     0.00000
C667        C  0.18823322  0.31439574  0.97144910    -0.08600
C668        C  0.20953835  0.33293219  0.94198116    -0.06000
C669        C  0.21683663  0.32503499  0.89925938    -0.00100
C670        C  0.20199301  0.29707921  0.88577135    -0.08500
C671        C  0.20857222  0.28582771  0.84150636     0.61900
H672        H  0.16868282  0.25764575  0.90503155     0.12500
H673        H  0.22079444  0.35398068  0.95258601     0.12600
C674        C  0.18172906  0.32441373  0.01724001     0.62100
F675        F  0.19228149  0.25796741  0.83774533    -0.23100
F676        F  0.23517252  0.29114168  0.84317916    -0.20400
F677        F  0.20454067  0.29736172  0.80111694    -0.20100
F678        F  0.18867527  0.31398899  0.05586913    -0.20100
F679        F  0.15436308  0.31630581  0.01954984    -0.20500
F680        F  0.19593601  0.35244406  0.02045441    -0.23100
C681        C  0.33701003  0.35588379  0.69747756    -0.06000
C682        C  0.31405401  0.33567544  0.72083854     0.00000
C683        C  0.30031634  0.30921550  0.70235460    -0.08600
C684        C  0.31014714  0.30390721  0.66004091    -0.06000
C685        C  0.33289286  0.32439395  0.63565707    -0.00100
C686        C  0.34638886  0.35121188  0.65436465    -0.08500
C687        C  0.37098191  0.37505235  0.63092614     0.61900
H688        H  0.34718963  0.37597404  0.71280771     0.12500
H689        H  0.30029632  0.28347952  0.64597740     0.12600
C690        C  0.27623730  0.28664985  0.72840929     0.62100
F691        F  0.37836113  0.39935597  0.65376168    -0.23100
F692        F  0.36553653  0.37830515  0.58448734    -0.20400
F693        F  0.39299823  0.37091908  0.63194048    -0.20100
F694        F  0.25400655  0.29050461  0.72472170    -0.20100
F695        F  0.28242513  0.28664315  0.77593659    -0.20500
F696        F  0.26936108  0.26140980  0.70998096    -0.23100
C697        C  0.36947274  0.40192592  0.94592649    -0.06000
C698        C  0.34196893  0.38552002  0.93463794     0.00000
C699        C  0.32831656  0.35804745  0.95026114    -0.08600
C700        C  0.34348644  0.34723953  0.97175743    -0.06000
C701        C  0.37162138  0.36303081  0.97834106    -0.00100
C702        C  0.38422247  0.39137634  0.96955231    -0.08500
C703        C  0.41339178  0.41063859  0.98306319     0.61900
H704        H  0.37976242  0.42300482  0.93463950     0.12500
H705        H  0.33384073  0.32573193  0.97970355     0.12600
C706        C  0.29832957  0.33960324  0.94088649     0.62100
F707        F  0.41648925  0.43571320  0.99529258    -0.23100
F708        F  0.43035306  0.41398325  0.94501773    -0.20400
F709        F  0.42102991  0.40093563  0.02191764    -0.20100
F710        F  0.29364529  0.33743611  0.89246874    -0.20100
F711        F  0.28349313  0.35020553  0.96219056    -0.20500
F712        F  0.28911855  0.31373734  0.95908054    -0.23100
C713        C  0.37955101  0.99679662  0.77414792    -0.06000
C714        C  0.34992997  0.48640269  0.80257568     0.00000
C715        C  0.33675329  0.50234778  0.79980591    -0.08600
C716        C  0.35468728  0.02873556  0.76963727    -0.06000
C717        C  0.37922331  0.03723837  0.74525508    -0.00100
C718        C  0.39256072  0.02171378  0.74933550    -0.08500
C719        C  0.42034595  0.03133768  0.72707061     0.61900
H720        H  0.38670919  0.48555308  0.78686775     0.12500
H721        H  0.34500588  0.04110436  0.76628510     0.12600
C722        C  0.30842989  0.49234606  0.81950063     0.62100
F723        F  0.43089517  0.01462096  0.73911420    -0.23100
F724        F  0.43810207  0.05723277  0.74280732    -0.20400
F725        F  0.41874204  0.03168974  0.67808762    -0.20100
F726        F  0.30725313  0.48536194  0.86693765    -0.20100
F727        F  0.29033250  0.47016163  0.79368648    -0.20500
F728        F  0.30055875  0.51193178  0.81637930    -0.23100
C729        C  0.30853995  0.38824319  0.61295064    -0.06000
C730        C  0.30379715  0.40506321  0.64368116     0.00000
C731        C  0.30272997  0.42782584  0.62551164    -0.08600
C732        C  0.30384571  0.43148970  0.57613255    -0.06000
C733        C  0.30747289  0.41405893  0.54526727    -0.00100
C734        C  0.31103516  0.39280760  0.56360868    -0.08500
C735        C  0.31746350  0.37527928  0.53114402     0.61900
H736        H  0.30994057  0.37131693  0.62784225     0.12500
H737        H  0.30164076  0.44805788  0.56139792     0.12600
C738        C  0.30095863  0.44904146  0.65603166     0.62100
F739        F  0.31498776  0.35260830  0.55455621    -0.23100
F740        F  0.34361561  0.39044568  0.51374281    -0.20400
F741        F  0.30017785  0.36647460  0.49306601    -0.20100
F742        F  0.30079268  0.44450147  0.70433606    -0.20100
F743        F  0.27752596  0.44968854  0.64506947    -0.20500
F744        F  0.32314933  0.47411913  0.64611431    -0.23100
C745        C  0.29914661  0.08820415  0.21607741    -0.06000
C746        C  0.32182757  0.09753924  0.24557623     0.00000
C747        C  0.31866306  0.10097243  0.29496767    -0.08600
C748        C  0.29486876  0.10059489  0.31067881    -0.06000
C749        C  0.27387696  0.09544759  0.27922367    -0.00100
C750        C  0.27495479  0.08682744  0.23231541    -0.08500
C751        C  0.25146153  0.07632475  0.19792673     0.61900
H752        H  0.30084652  0.08376231  0.17913347     0.12500
H753        H  0.29350935  0.10645279  0.34684967     0.12600
C754        C  0.34037645  0.10587405  0.33116448     0.62100
F755        F  0.24340766  0.04954125  0.18751401    -0.23100
F756        F  0.25977082  0.09126973  0.15628008    -0.20400
F757        F  0.22924118  0.07746871  0.21576637    -0.20100
F758        F  0.35975078  0.13305902  0.33175230    -0.20100
F759        F  0.35253212  0.09048514  0.32009765    -0.20500
F760        F  0.32934909  0.09847412  0.37644101    -0.23100
C761        C  0.38072848  0.18116286  0.07880407    -0.06000
C762        C  0.40301694  0.18612608  0.10722004     0.00000
C763        C  0.42602011  0.21262856  0.10789409    -0.08600
C764        C  0.42529780  0.23353607  0.08167497    -0.06000
C765        C  0.40264371  0.22862277  0.05465362    -0.00100
C766        C  0.38025278  0.20205775  0.05223305    -0.08500
C767        C  0.35591356  0.19598287  0.02170050     0.61900
H768        H  0.36356210  0.16098477  0.07823285     0.12500
H769        H  0.44223285  0.25364504  0.08216657     0.12600
C770        C  0.45140514  0.21916554  0.13590124     0.62100
F771        F  0.33531748  0.16942697  0.02700512    -0.23100
F772        F  0.36364021  0.20028962  0.97433842    -0.20400
F773        F  0.34575917  0.21288222  0.03439240    -0.20100
F774        F  0.45836541  0.19906134  0.12973832    -0.20100
F775        F  0.44681058  0.22128697  0.18363299    -0.20500
F776        F  0.47334747  0.24346620  0.12123026    -0.23100
C777        C  0.47108106  0.14968652  0.05136996    -0.06000
C778        C  0.46083166  0.12250400  0.06493624     0.00000
C779        C  0.47529235  0.10899911  0.05202049    -0.08600
C780        C  0.99976380  0.12173314  0.03559776    -0.06000
C781        C  0.01090174  0.14968661  0.02571793    -0.00100
C782        C  0.99420537  0.16186517  0.03285385    -0.08500
C783        C  0.00398973  0.19166500  0.02237535     0.61900
H784        H  0.45959734  0.15957951  0.06165329     0.12500
H785        H  0.01206318  0.11219860  0.02925772     0.12600
C786        C  0.46470207  0.07906528  0.06156272     0.62100
F787        F  0.48944021  0.20332970  0.03443064    -0.23100
F788        F  0.01104047  0.19708759  0.97484863    -0.20400
F789        F  0.02608256  0.20778825  0.05044523    -0.20100
F790        F  0.43797129  0.06592506  0.07677888    -0.20100
F791        F  0.48047910  0.07605589  0.09583088    -0.20500
F792        F  0.97847591  0.06659982  0.04966760    -0.23100
C793        C  0.49642627  0.20194450  0.36570415    -0.06000
C794        C  0.00087547  0.18087823  0.39586207     0.00000
C795        C  0.99004356  0.15416639  0.37780515    -0.08600
C796        C  0.97987022  0.14913035  0.33149297    -0.06000
C797        C  0.47794774  0.17003736  0.30035128    -0.00100
C798        C  0.48429388  0.19548326  0.32046405    -0.08500
C799        C  0.47921939  0.21608256  0.29427972     0.61900
H800        H  0.50388547  0.22217899  0.37975983     0.12500
H801        H  0.97373901  0.12942552  0.31624747     0.12600
C802        C  0.98987128  0.13094677  0.40565278     0.62100
F803        F  0.48983873  0.24051512  0.31823253    -0.23100
F804        F  0.45159635  0.20611403  0.28995059    -0.20400
F805        F  0.49108958  0.22122729  0.24959370    -0.20100
F806        F  0.98089887  0.13047494  0.45169497    -0.20100
F807        F  0.01551804  0.13374984  0.40632529    -0.20500
F808        F  0.97266217  0.10601621  0.38563376    -0.23100
C809        C  0.34173849  0.01064628  0.20690883    -0.06000
C810        C  0.36937524  0.02126188  0.19575000     0.00000
C811        C  0.38192107  0.00541238  0.20655433    -0.08600
C812        C  0.36678245  0.47857617  0.23824702    -0.06000
C813        C  0.33997949  0.46972345  0.25231011    -0.00100
C814        C  0.32614070  0.48287470  0.23407370    -0.08500
C815        C  0.29631295  0.47219639  0.24510823     0.61900
H816        H  0.33207107  0.02250185  0.19793625     0.12500
H817        H  0.37685834  0.46785305  0.25164651     0.12600
C818        C  0.41045307  0.01340809  0.19008443     0.62100
F819        F  0.28653472  0.48771225  0.22365708    -0.23100
F820        F  0.29239281  0.47232666  0.29366739    -0.20400
F821        F  0.28146922  0.44592450  0.22853967    -0.20100
F822        F  0.42893683  0.02954047  0.22394895    -0.20100
F823        F  0.41640113  0.02732644  0.14731284    -0.20500
F824        F  0.41311221  0.99057905  0.18311943    -0.23100
C825        C  0.42204538  0.13001228  0.38997732    -0.06000
C826        C  0.41624860  0.10665158  0.36386841     0.00000
C827        C  0.41061473  0.08246602  0.38827303    -0.08600
C828        C  0.40850960  0.08215433  0.43832787    -0.06000
C829        C  0.41220715  0.10519920  0.46343216    -0.00100
C830        C  0.42009246  0.12972087  0.43922205    -0.08500
C831        C  0.42648934  0.15560994  0.46506380     0.61900
H832        H  0.42786308  0.14883768  0.37122353     0.12500
H833        H  0.40278367  0.06363460  0.45809245     0.12600
C834        C  0.40625085  0.05719148  0.36209942     0.62100
F835        F  0.43708395  0.17763990  0.43441082    -0.23100
F836        F  0.44543630  0.16051571  0.50000736    -0.20400
F837        F  0.40313604  0.15331491  0.48528512    -0.20100
F838        F  0.38587231  0.04978167  0.32898426    -0.20100
F839        F  0.39897071  0.03550049  0.39282708    -0.20500
F840        F  0.42994754  0.06222784  0.33909077    -0.23100
Fe841      Fe  0.43591585  0.60002889  0.21529523     1.65800
Fe842      Fe  0.38534106  0.59893344  0.14595617     1.73200
Fe843      Fe  0.41090786  0.64317251  0.23832317     1.54400
O844        O  0.41225108  0.62477822  0.30002440    -0.81900
O845        O  0.39137412  0.63651615  0.12223592    -0.80200
O846        O  0.42450349  0.59350910  0.28597446    -0.84400
O847        O  0.46819826  0.63734758  0.23251513    -0.79200
O848        O  0.36961455  0.62339888  0.24561918    -0.81000
O849        O  0.41747131  0.60506694  0.10015987    -0.83700
C850        C  0.46678548  0.65643278  0.25329768     0.97000
C851        C  0.41761842  0.60660419  0.31410185     1.04500
O852        O  0.41061411  0.61397586  0.19989598    -1.12700
O853        O  0.37428527  0.55871426  0.16198608    -0.75200
O854        O  0.40791669  0.56030017  0.20409183    -0.78600
O855        O  0.45220209  0.66540499  0.23600502    -0.79300
C856        C  0.38483223  0.54711517  0.18557828     0.95900
O857        O  0.44994571  0.60586973  0.14665076    -0.77300
O858        O  0.35192145  0.59260061  0.18807731    -0.82500
C859        C  0.40126233  0.66026860  0.13937618     0.98500
C860        C  0.34951166  0.60386848  0.22577352     1.04500
O861        O  0.40982774  0.66548919  0.18153861    -0.78100
C862        C  0.44125763  0.60828090  0.10646356     1.02800
Fe863      Fe  0.33114757  0.90073668  0.78474368     1.65800
Fe864      Fe  0.28874111  0.90880500  0.85905298     1.73200
Fe865      Fe  0.26362164  0.86373687  0.76937047     1.54400
O866        O  0.27747600  0.88556870  0.70760976    -0.81900
O867        O  0.25446043  0.87272567  0.88122666    -0.80200
O868        O  0.32166653  0.89852216  0.71283711    -0.84400
O869        O  0.32075530  0.86065827  0.78785328    -0.79200
O870        O  0.24003023  0.88168840  0.78042376    -0.81000
O871        O  0.31145520  0.89684053  0.90185653    -0.83700
C872        C  0.30504848  0.84415479  0.75740499     0.97000
C873        C  0.30105197  0.89514011  0.68949096     1.04500
O874        O  0.29462537  0.89153457  0.80404904    -1.12700
O875        O  0.32175543  0.94766758  0.84207025    -0.75200
O876        O  0.34316244  0.94132736  0.78093857    -0.78600
O877        O  0.28219289  0.84194235  0.74869536    -0.79300
C878        C  0.33854613  0.95688246  0.80719208     0.95900
O879        O  0.34542044  0.90379910  0.85329216    -0.77300
O880        O  0.26521219  0.92026176  0.81873947    -0.82500
C881        C  0.24334419  0.84779941  0.86888851     0.98500
C882        C  0.24593719  0.90576109  0.79074663     1.04500
O883        O  0.24906619  0.84082227  0.82967494    -0.78100
C884        C  0.33344817  0.89648992  0.89329410     1.02800
Fe885      Fe  0.39957404  0.84033435  0.55344214     1.65800
Fe886      Fe  0.40418164  0.79668863  0.47657340     1.73200
Fe887      Fe  0.36263999  0.77262754  0.57181920     1.54400
O888        O  0.38730730  0.78606715  0.62995807    -0.81900
O889        O  0.36686238  0.76286381  0.45911639    -0.80200
O890        O  0.40211108  0.83068469  0.62359885    -0.84400
O891        O  0.36036846  0.83171212  0.56294608    -0.79200
O892        O  0.37842354  0.74771391  0.55532439    -0.81000
O893        O  0.39218550  0.82028132  0.43577826    -0.83700
C894        C  0.34544939  0.81543161  0.59469558     0.97000
C895        C  0.39818379  0.80986450  0.64710217     1.04500
O896        O  0.38899797  0.80344745  0.53387347    -1.12700
O897        O  0.44390374  0.82873539  0.48881782    -0.75200
O898        O  0.43991809  0.85269753  0.54771691    -0.78600
O899        O  0.34317366  0.79215953  0.59916917    -0.79300
C900        C  0.45428981  0.84672281  0.52114533     0.95900
O901        O  0.39721101  0.85315857  0.48545590    -0.77300
O902        O  0.41618651  0.77265863  0.51453760    -0.82500
C903        C  0.34244518  0.75192135  0.47482961     0.98500
C904        C  0.40218716  0.75333861  0.54326416     1.04500
O905        O  0.33693441  0.75830970  0.51495433    -0.78100
C906        C  0.39076138  0.84167957  0.44510500     1.02800
Fe907      Fe  0.07042397  0.91161734  0.72464847     1.65800
Fe908      Fe  0.11592829  0.91395793  0.64383785     1.73200
Fe909      Fe  0.09922562  0.87247179  0.74051837     1.54400
O910        O  0.09901310  0.89199014  0.80212329    -0.81900
O911        O  0.10565629  0.87552877  0.61770246    -0.80200
O912        O  0.09287065  0.92727003  0.78523702    -0.84400
O913        O  0.04599435  0.87671737  0.76356302    -0.79200
O914        O  0.14033747  0.89569442  0.74022645    -0.81000
O915        O  0.08100945  0.91010966  0.60952452    -0.83700
C916        C  0.04366441  0.85340158  0.76921108     0.97000
C917        C  0.09886800  0.91367431  0.81398634     1.04500
O918        O  0.09516572  0.89899621  0.70243926    -1.12700
O919        O  0.12927796  0.95369630  0.66701033    -0.75200
O920        O  0.09076974  0.94960730  0.69296093    -0.78600
O921        O  0.05830700  0.84628083  0.74625313    -0.79300
C922        C  0.11577487  0.96425156  0.68412113     0.95900
O923        O  0.04777540  0.89606036  0.66460825    -0.77300
O924        O  0.15231360  0.91864414  0.67173821    -0.82500
C925        C  0.10114366  0.85348499  0.63805261     0.98500
C926        C  0.15818443  0.91138230  0.71083542     1.04500
O927        O  0.09985510  0.85051984  0.68282726    -0.78100
C928        C  0.05596437  0.89987524  0.62155873     1.02800
Fe929      Fe  0.17284175  0.61465222  0.27329869     1.65800
Fe930      Fe  0.21264875  0.60677841  0.35527168     1.73200
Fe931      Fe  0.24066121  0.64697327  0.25781985     1.54400
O932        O  0.22574849  0.62324291  0.19914779    -0.81900
O933        O  0.24635789  0.64336824  0.37578582    -0.80200
O934        O  0.18295208  0.61440863  0.20252896    -0.84400
O935        O  0.18392643  0.65498891  0.26702104    -0.79200
O936        O  0.26139914  0.62652268  0.27179540    -0.81000
O937        O  0.18823767  0.61862649  0.39329298    -0.83700
C938        C  0.20241758  0.67096092  0.23876897     0.97000
C939        C  0.20353620  0.61723994  0.17936257     1.04500
O940        O  0.20871490  0.62278629  0.29585124    -1.12700
O941        O  0.17987510  0.56821072  0.33969887    -0.75200
O942        O  0.15934717  0.57384646  0.27664251    -0.78600
O943        O  0.22439854  0.67042592  0.23332128    -0.79300
C944        C  0.16301774  0.55869399  0.30553553     0.95900
O945        O  0.15760867  0.61471693  0.34007664    -0.77300
O946        O  0.23761712  0.59353882  0.32388285    -0.82500
C947        C  0.26070903  0.66686983  0.35710754     0.98500
C948        C  0.25645752  0.60485534  0.29307633     1.04500
O949        O  0.25796286  0.67226990  0.31437837    -0.78100
C950        C  0.16655713  0.61886376  0.38220013     1.02800
Fe951      Fe  0.16746622  0.57946668  0.88839702     1.65800
Fe952      Fe  0.21048663  0.62273056  0.80501688     1.73200
Fe953      Fe  0.23492710  0.60619887  0.90198508     1.54400
O954        O  0.21613460  0.60591289  0.96446148    -0.81900
O955        O  0.23783219  0.61146357  0.77920842    -0.80200
O956        O  0.17538404  0.60155210  0.95021395    -0.84400
O957        O  0.17709268  0.55348438  0.92426567    -0.79200
O958        O  0.25242952  0.64734318  0.90250430    -0.81000
O959        O  0.17987030  0.58767890  0.77107796    -0.83700
C960        C  0.19755849  0.55017966  0.92837441     0.97000
C961        C  0.19490413  0.60636210  0.97790570     1.04500
O962        O  0.20449220  0.60272990  0.86465776    -1.12700
O963        O  0.18535190  0.63792924  0.82660820    -0.75200
O964        O  0.15130357  0.60213877  0.85984273    -0.78600
O965        O  0.21975327  0.56513565  0.90714275    -0.79300
C966        C  0.16267179  0.62694595  0.84791915     0.95900
O967        O  0.15865753  0.55621824  0.82801476    -0.77300
O968        O  0.24190289  0.65872119  0.83296825    -0.82500
C969        C  0.25608239  0.60808532  0.79913688     0.98500
C970        C  0.25470920  0.66490230  0.87221635     1.04500
O971        O  0.25772605  0.60718810  0.84389429    -0.78100
C972        C  0.16426285  0.56307105  0.78451986     1.02800
Fe973      Fe  0.06083425  0.67356114  0.45117168     1.65800
Fe974      Fe  0.11107853  0.71752238  0.52254481     1.73200
Fe975      Fe  0.08857141  0.74089205  0.43259462     1.54400
O976        O  0.09537400  0.72616397  0.37060704    -0.81900
O977        O  0.10920954  0.75237050  0.54334751    -0.80200
O978        O  0.06610260  0.68215010  0.37886343    -0.84400
O979        O  0.02951296  0.68207914  0.45364673    -0.79200
O980        O  0.12996148  0.76433175  0.43914414    -0.81000
O981        O  0.07817330  0.69468114  0.56760352    -0.83700
C982        C  0.02798586  0.69773964  0.42328753     0.97000
C983        C  0.08053149  0.70284286  0.35325668     1.04500
O984        O  0.08686481  0.71060712  0.46885596    -1.12700
O985        O  0.11734172  0.68438675  0.50743071    -0.75200
O986        O  0.09044451  0.66277079  0.44674082    -0.78600
O987        O  0.04767740  0.72142842  0.41637876    -0.79300
C988        C  0.11024680  0.66737770  0.47339868     0.95900
O989        O  0.05152230  0.66018112  0.52062693    -0.77300
O990        O  0.14483734  0.74076287  0.48043927    -0.82500
C991        C  0.09597274  0.76412810  0.53002171     0.98500
C992        C  0.14872639  0.75954644  0.45131927     1.04500
O993        O  0.08205601  0.75774758  0.49230009    -0.78100
C994        C  0.05713539  0.67174583  0.56085338     1.02800
Fe995      Fe  0.32827610  0.94183410  0.39609349     1.65800
Fe996      Fe  0.28562868  0.89334547  0.31913692     1.73200
Fe997      Fe  0.26038470  0.91048820  0.41649282     1.54400
O998        O  0.28036672  0.91418357  0.47926840    -0.81900
O999        O  0.25492390  0.90025022  0.29399516    -0.80200
O1000       O  0.32317378  0.92506811  0.46273055    -0.84400
O1001       O  0.31685943  0.96871431  0.42254823    -0.79200
O1002       O  0.24556907  0.86942262  0.42053007    -0.81000
O1003       O  0.31307422  0.92749201  0.27903107    -0.83700
C1004       C  0.29552450  0.97036514  0.42916984     0.97000
C1005       C  0.30352332  0.91805159  0.49155206     1.04500
O1006       O  0.29130612  0.91531319  0.37688438    -1.12700
O1007       O  0.31484248  0.88260363  0.33809994    -0.75200
O1008       O  0.34558417  0.91860283  0.37618901    -0.78600
O1009       O  0.27210753  0.95124314  0.41911960    -0.79300
C1010       C  0.33747929  0.89520567  0.35922184     0.95900
O1011       O  0.33613413  0.96092543  0.33091723    -0.77300
O1012       O  0.25737444  0.85741389  0.35269935    -0.82500
C1013       C  0.23676174  0.90383314  0.31431160     0.98500
C1014       C  0.24483411  0.85158460  0.39250797     1.04500
O1015       O  0.23609083  0.90635113  0.35899358    -0.78100
C1016       C  0.32948439  0.95233367  0.28873063     1.02800
Fe1017     Fe  0.09874974  0.67643783  0.05821614     1.65800
Fe1018     Fe  0.09584217  0.72167026  0.98069092     1.73200
Fe1019     Fe  0.13133538  0.74387956  0.08413626     1.54400
O1020       O  0.11082133  0.72201984  0.14268251    -0.81900
O1021       O  0.13404816  0.75246031  0.96260849    -0.80200
O1022       O  0.08384986  0.67854448  0.12423437    -0.84400
O1023       O  0.13570207  0.68716548  0.08904114    -0.79200
O1024       O  0.10551062  0.75922119  0.08228609    -0.81000
O1025       O  0.10509627  0.69552196  0.94141743    -0.83700
C1026       C  0.15666503  0.70887425  0.10131901     0.97000
C1027       C  0.09297904  0.69801474  0.15352262     1.04500
O1028       O  0.10873085  0.71405047  0.04092808    -1.12700
O1029       O  0.05603492  0.69208974  0.99402489    -0.75200
O1030       O  0.05934989  0.65987307  0.03337989    -0.78600
O1031       O  0.15987168  0.73224242  0.09337221    -0.79300
C1032       C  0.04515363  0.66925349  0.01502803     0.95900
O1033       O  0.11350509  0.67112977  0.99439144    -0.77300
O1034       O  0.08577082  0.74938543  0.01145669    -0.82500
C1035       C  0.15435430  0.76970763  0.98602944     0.98500
C1036       C  0.09052078  0.76135803  0.05143293     1.04500
O1037       O  0.15518362  0.76945092  0.03090480    -0.78100
C1038       C  0.11327028  0.67877359  0.95203325     1.02800
Fe1039     Fe  0.10496140  0.94781149  0.11001712     1.65800
Fe1040     Fe  0.09511270  0.89764999  0.18813550     1.73200
Fe1041     Fe  0.13940301  0.91349017  0.09713310     1.54400
O1042       O  0.11731402  0.90634526  0.03686179    -0.81900
O1043       O  0.13010540  0.89659111  0.20997018    -0.80200
O1044       O  0.10673835  0.93931216  0.03867591    -0.84400
O1045       O  0.14526614  0.97738855  0.10584034    -0.79200
O1046       O  0.11901129  0.87222552  0.10881860    -0.81000
O1047       O  0.10760288  0.93226360  0.22924311    -0.83700
C1048       C  0.16360893  0.97594375  0.08178069     0.97000
C1049       C  0.11093889  0.92221340  0.01611270     1.04500
O1050       O  0.11337854  0.91998609  0.13223223    -1.12700
O1051       O  0.05748976  0.89471500  0.17329247    -0.75200
O1052       O  0.06399428  0.92066669  0.10969022    -0.78600
O1053       O  0.16352965  0.95361755  0.07631022    -0.79300
C1054       C  0.04840225  0.90227267  0.13850830     0.95900
O1055       O  0.10330774  0.96051599  0.17872291    -0.77300
O1056       O  0.08147291  0.86200111  0.14966272    -0.82500
C1057       C  0.15473592  0.90737413  0.19576253     0.98500
C1058       C  0.09505948  0.85543203  0.12193389     1.04500
O1059       O  0.16271375  0.91958764  0.15613363    -0.78100
C1060       C  0.10801387  0.95454125  0.21999479     1.02800
Fe1061     Fe  0.39699872  0.57089310  0.60915359     1.65800
Fe1062     Fe  0.39995203  0.61778599  0.68768407     1.73200
Fe1063     Fe  0.36602543  0.60758891  0.58442710     1.54400
O1064       O  0.38448466  0.60265296  0.52419599    -0.81900
O1065       O  0.36122846  0.60884046  0.70703146    -0.80200
O1066       O  0.41403803  0.58931676  0.54579446    -0.84400
O1067       O  0.36058931  0.54783267  0.57369824    -0.79200
O1068       O  0.39475451  0.64762097  0.58375607    -0.81000
O1069       O  0.39294846  0.58238733  0.72481050    -0.83700
C1070       C  0.33922206  0.54925193  0.56534972     0.97000
C1071       C  0.40343914  0.59738904  0.51482270     1.04500
O1072       O  0.38754318  0.59869334  0.62723401    -1.12700
O1073       O  0.43960979  0.62879057  0.67083143    -0.75200
O1074       O  0.43587954  0.59152528  0.63818804    -0.78600
O1075       O  0.33562038  0.56822794  0.58063983    -0.79300
C1076       C  0.45032176  0.61605779  0.65150745     0.95900
O1077       O  0.38013829  0.54956838  0.67070487    -0.77300
O1078       O  0.40794475  0.65551745  0.65913145    -0.82500
C1079       C  0.34298815  0.61062783  0.68361889     0.98500
C1080       C  0.40649033  0.66382872  0.61760084     1.04500
O1081       O  0.34424036  0.61329440  0.63869429    -0.78100
C1082       C  0.38299192  0.55743186  0.71350992     1.02800
Fe1083     Fe  0.43698981  0.83767858  0.94106229     1.65800
Fe1084     Fe  0.38891253  0.79408374  0.01881459     1.73200
Fe1085     Fe  0.40887339  0.77005281  0.92393818     1.54400
O1086       O  0.41509635  0.79005127  0.85976248    -0.81900
O1087       O  0.39668280  0.76400070  0.04523291    -0.80200
O1088       O  0.42099960  0.83123029  0.87421459    -0.84400
O1089       O  0.46529448  0.82698211  0.91858858    -0.79200
O1090       O  0.36853061  0.75567870  0.91581854    -0.81000
O1091       O  0.42243292  0.82241015  0.05925966    -0.83700
C1092       C  0.46793375  0.80592352  0.91622549     0.97000
C1093       C  0.41679310  0.81218749  0.84607081     1.04500
O1094       O  0.41167311  0.80057126  0.96187261    -1.12700
O1095       O  0.37740112  0.82281516  0.99974220    -0.75200
O1096       O  0.41202915  0.85355054  0.95763726    -0.78600
O1097       O  0.44931106  0.78255215  0.92817506    -0.79300
C1098       C  0.38902923  0.84517858  0.97696834     0.95900
O1099       O  0.45499616  0.84738349  0.00627886    -0.77300
O1100       O  0.35381291  0.76544740  0.98268638    -0.82500
C1101       C  0.39934836  0.74527619  0.02523619     0.98500
C1102       C  0.34946513  0.75414329  0.94184833     1.04500
O1103       O  0.40224092  0.74453007  0.98079132    -0.78100
C1104       C  0.44672919  0.84069318  0.04879550     1.02800
C1105       C  0.50323779  0.85810155  0.13736840    -0.06000
C1106       C  0.01868767  0.88760432  0.12860218     0.00000
C1107       C  0.00476449  0.90079633  0.11027213    -0.08600
C1108       C  0.48158838  0.88394363  0.08286661    -0.06000
C1109       C  0.46736310  0.85551672  0.08611943    -0.00100
C1110       C  0.47743609  0.84249641  0.11638187    -0.08500
C1111       C  0.46204755  0.81201188  0.12285843     0.61900
H1112       H  0.01568327  0.84916368  0.14529226     0.12500
H1113       H  0.47353448  0.89381292  0.06022169     0.12600
C1114       C  0.01779575  0.93149662  0.10748794     0.62100
F1115       F  0.47490745  0.80314243  0.15410837    -0.23100
F1116       F  0.45992102  0.79981115  0.07938635    -0.20400
F1117       F  0.43638268  0.80409365  0.14071942    -0.20100
F1118       F  0.03606048  0.94117055  0.06995753    -0.20100
F1119       F  0.03109677  0.94304883  0.14937599    -0.20500
F1120       F  0.99863408  0.93963612  0.10029385    -0.23100
C1121       C  0.08610444  0.82539748  0.05329626    -0.06000
C1122       C  0.08355683  0.82765682  0.10259638     0.00000
C1123       C  0.07488237  0.80448854  0.13176371    -0.08600
C1124       C  0.07327219  0.78095893  0.11156494    -0.06000
C1125       C  0.08022678  0.78024688  0.06356742    -0.00100
C1126       C  0.08434365  0.80186684  0.03296390    -0.08500
C1127       C  0.08871809  0.80098093  0.97985748     0.61900
H1128       H  0.09153223  0.84307959  0.03125135     0.12500
H1129       H  0.06921684  0.76384211  0.13423993     0.12600
C1130       C  0.06952343  0.80529907  0.18441418     0.62100
F1131       F  0.09089379  0.82360400  0.95667507    -0.23100
F1132       F  0.06689200  0.77829956  0.96080695    -0.20400
F1133       F  0.11226159  0.79990115  0.97124291    -0.20100
F1134       F  0.04993603  0.81290624  0.19094445    -0.20100
F1135       F  0.09312555  0.82368496  0.20684444    -0.20500
F1136       F  0.06024322  0.78020923  0.20566780    -0.23100
C1137       C  0.18368603  0.92142985  0.26699097    -0.06000
C1138       C  0.17494468  0.90543256  0.22618840     0.00000
C1139       C  0.18609034  0.88856317  0.21433786    -0.08600
C1140       C  0.20615104  0.88858848  0.24396999    -0.06000
C1141       C  0.21529397  0.90485813  0.28491652    -0.00100
C1142       C  0.20384446  0.92169346  0.29654983    -0.08500
C1143       C  0.21322957  0.94059944  0.33903462     0.61900
H1144       H  0.17473437  0.93407202  0.27515581     0.12500
H1145       H  0.21476281  0.87570703  0.23543569     0.12600
C1146       C  0.17645412  0.87036243  0.17088251     0.62100
F1147       F  0.20285335  0.95823583  0.33858129    -0.23100
F1148       F  0.24120554  0.95610494  0.33854701    -0.20400
F1149       F  0.20462004  0.92562543  0.38069014    -0.20100
F1150       F  0.18274597  0.88604133  0.13007918    -0.20100
F1151       F  0.14867489  0.85352281  0.17351953    -0.20500
F1152       F  0.18845848  0.85418076  0.16732899    -0.23100
C1153       C  0.28750768  0.98908070  0.50251890    -0.06000
C1154       C  0.29872983  0.99403076  0.45623403     0.00000
C1155       C  0.31909996  0.51812714  0.44585711    -0.08600
C1156       C  0.33059749  0.53736304  0.48196819    -0.06000
C1157       C  0.32097981  0.53122871  0.52885797    -0.00100
C1158       C  0.29674044  0.50718368  0.53908910    -0.08500
C1159       C  0.28693296  0.00404453  0.58787500     0.61900
H1160       H  0.27086125  0.96911895  0.51117012     0.12500
H1161       H  0.34834741  0.55676965  0.47442687     0.12600
C1162       C  0.32956644  0.52543948  0.39520922     0.62100
F1163       F  0.26395203  0.97884965  0.59196410    -0.23100
F1164       F  0.27623664  0.52280794  0.59487056    -0.20400
F1165       F  0.30075255  0.50439704  0.62265010    -0.20100
F1166       F  0.30804135  0.51890256  0.36502363    -0.20100
F1167       F  0.34277038  0.51151335  0.38143082    -0.20500
F1168       F  0.34756422  0.55289279  0.39050855    -0.23100
C1169       C  0.19758676  0.78988918  0.46472135    -0.06000
C1170       C  0.17620048  0.77785375  0.43249726     0.00000
C1171       C  0.18097900  0.78561410  0.38381286    -0.08600
C1172       C  0.20566148  0.80831366  0.37075270    -0.06000
C1173       C  0.22549115  0.82299561  0.40458767    -0.00100
C1174       C  0.22253948  0.81226031  0.45131765    -0.08500
C1175       C  0.24582819  0.82354221  0.48610612     0.61900
H1176       H  0.19407939  0.78271421  0.50120215     0.12500
H1177       H  0.20852336  0.81620473  0.33477349     0.12600
C1178       C  0.16007413  0.77054337  0.34575152     0.62100
F1179       F  0.26790004  0.82353146  0.46478903    -0.23100
F1180       F  0.23950370  0.80788360  0.52705383    -0.20400
F1181       F  0.25252820  0.84959419  0.49929106    -0.20100
F1182       F  0.13911290  0.77638877  0.34920584    -0.20100
F1183       F  0.15009694  0.74291511  0.35099274    -0.20500
F1184       F  0.17118631  0.77787405  0.30053118    -0.23100
C1185       C  0.08151029  0.67741154  0.28295719    -0.06000
C1186       C  0.07952048  0.69948341  0.30143911     0.00000
C1187       C  0.07660234  0.71751002  0.26990727    -0.08600
C1188       C  0.07873680  0.71439947  0.22124440    -0.06000
C1189       C  0.08317777  0.69395821  0.20284954    -0.00100
C1190       C  0.08346766  0.67429925  0.23369294    -0.08500
C1191       C  0.08713041  0.65110180  0.21510310     0.61900
H1192       H  0.08282378  0.66334534  0.30756612     0.12500
H1193       H  0.07793204  0.72895586  0.19697983     0.12600
C1194       C  0.07111426  0.74034030  0.28380966     0.62100
F1195       F  0.08680273  0.63439009  0.25147285    -0.23100
F1196       F  0.11167717  0.66125860  0.19127895    -0.20400
F1197       F  0.06626519  0.63544907  0.18438966    -0.20100
F1198       F  0.09329647  0.76493946  0.27123479    -0.20100
F1199       F  0.06569388  0.74100732  0.33128320    -0.20500
F1200       F  0.04869300  0.73729127  0.25929771    -0.23100
C1201       C  0.02708570  0.67452550  0.62170773    -0.06000
C1202       C  0.03647867  0.65858623  0.59914501     0.00000
C1203       C  0.02115547  0.63000097  0.60374926    -0.08600
C1204       C  0.49228244  0.61444438  0.62860248    -0.06000
C1205       C  0.48036404  0.63042364  0.64101020    -0.00100
C1206       C  0.00090626  0.66297616  0.64242848    -0.08500
C1207       C  0.99119809  0.68205034  0.66089435     0.61900
H1208       H  0.03922770  0.69636463  0.61813326     0.12500
H1209       H  0.48049845  0.59266380  0.63349045     0.12600
C1210       C  0.03062395  0.61103902  0.58407867     0.62100
F1211       F  0.01152713  0.70893261  0.65961161    -0.23100
F1212       F  0.47891380  0.67574966  0.69667045    -0.20400
F1213       F  0.46370358  0.67309128  0.62142196    -0.20100
F1214       F  0.05815350  0.62432662  0.57410510    -0.20100
F1215       F  0.01651664  0.59914903  0.54296591    -0.20500
F1216       F  0.51498600  0.58186078  0.61456405    -0.23100
C1217       C  0.31964550  0.73127301  0.87320787    -0.06000
C1218       C  0.32151213  0.73725454  0.92232434     0.00000
C1219       C  0.29754168  0.72423705  0.95045230    -0.08600
C1220       C  0.27447270  0.70204201  0.93074230    -0.06000
C1221       C  0.27446854  0.69334383  0.88386108    -0.00100
C1222       C  0.29658596  0.70933019  0.85348797    -0.08500
C1223       C  0.29672775  0.70200639  0.80155370     0.61900
H1224       H  0.33726932  0.74270103  0.85069256     0.12500
H1225       H  0.25685899  0.68997750  0.95299739     0.12600
C1226       C  0.29625121  0.73272821  0.00110784     0.62100
F1227       F  0.32031855  0.72037790  0.77828042    -0.23100
F1228       F  0.27514194  0.70190249  0.77851639    -0.20400
F1229       F  0.29454168  0.67659151  0.79812845    -0.20100
F1230       F  0.30567793  0.76039405  0.00254148    -0.20100
F1231       F  0.31180396  0.72626512  0.03039880    -0.20500
F1232       F  0.26994972  0.71987143  0.01871305    -0.23100
C1233       C  0.28338615  0.62012966  0.72487690    -0.06000
C1234       C  0.27706103  0.60657174  0.76895979     0.00000
C1235       C  0.29150450  0.59309499  0.78328518    -0.08600
C1236       C  0.31232555  0.59469084  0.75359671    -0.06000
C1237       C  0.31932454  0.60903638  0.71024794    -0.00100
C1238       C  0.30415732  0.62163853  0.69500057    -0.08500
C1239       C  0.30960033  0.63689630  0.64797889     0.61900
H1240       H  0.27211848  0.63014818  0.71424221     0.12500
H1241       H  0.32362822  0.58474553  0.76449794     0.12600
C1242       C  0.28523254  0.57689002  0.82936881     0.62100
F1243       F  0.29425587  0.64976148  0.64336086    -0.23100
F1244       F  0.30311425  0.61891890  0.61067420    -0.20400
F1245       F  0.33653961  0.65660352  0.64446151    -0.20100
F1246       F  0.25770868  0.55888097  0.83282969    -0.20100
F1247       F  0.29345347  0.59428167  0.86780019    -0.20500
F1248       F  0.29858322  0.56192967  0.83175023    -0.23100
C1249       C  0.12145371  0.62830163  0.87489086    -0.06000
C1250       C  0.14913795  0.64309484  0.86233491     0.00000
C1251       C  0.16350842  0.67153882  0.87211763    -0.08600
C1252       C  0.15007130  0.68319756  0.89754367    -0.06000
C1253       C  0.12334725  0.66743909  0.91435531    -0.00100
C1254       C  0.10852671  0.63978233  0.90160891    -0.08500
C1255       C  0.07929278  0.62222316  0.91765102     0.61900
H1256       H  0.11030509  0.60691430  0.86638355     0.12500
H1257       H  0.16101592  0.70435699  0.90775288     0.12600
C1258       C  0.19328576  0.68932784  0.85907064     0.62100
F1259       F  0.06814877  0.59607024  0.90019494    -0.23100
F1260       F  0.06391608  0.63347704  0.90157519    -0.20400
F1261       F  0.07782992  0.62059072  0.96671817    -0.20100
F1262       F  0.19682758  0.68856155  0.81049070    -0.20100
F1263       F  0.20875661  0.68032163  0.88273134    -0.20500
F1264       F  0.20289539  0.71615934  0.87152594    -0.23100
C1265       C  0.19248858  0.99450274  0.00932762    -0.06000
C1266       C  0.18299183  0.99975658  0.05251113     0.00000
C1267       C  0.19186967  0.52174547  0.05061477    -0.08600
C1268       C  0.20015410  0.54006404  0.01215386    -0.06000
C1269       C  0.19598771  0.53095781  0.96481534    -0.00100
C1270       C  0.18553523  0.50331382  0.95490967    -0.08500
C1271       C  0.18023667  0.49311350  0.90417073     0.61900
H1272       H  0.19193420  0.97525491  0.00491337     0.12500
H1273       H  0.20797804  0.56148840  0.01886576     0.12600
C1274       C  0.18438420  0.03690958  0.10757377     0.62100
F1275       F  0.17101059  0.46553160  0.90186689    -0.23100
F1276       F  0.20394116  0.50637579  0.87775644    -0.20400
F1277       F  0.16080390  0.49813171  0.88428971    -0.20100
F1278       F  0.18412468  0.02061779  0.14456342    -0.20100
F1279       F  0.16123681  0.03930219  0.10994536    -0.20500
F1280       F  0.21382399  0.55952582  0.10341744    -0.23100
C1281       C  0.12057672  0.51903239  0.27879897    -0.06000
C1282       C  0.14688788  0.52888617  0.29686845     0.00000
C1283       C  0.15812264  0.51121826  0.29800809    -0.08600
C1284       C  0.14221985  0.98460755  0.27758565    -0.06000
C1285       C  0.11677015  0.97588872  0.25695006    -0.00100
C1286       C  0.10402608  0.99185874  0.26296088    -0.08500
C1287       C  0.07484112  0.98218415  0.24908934     0.61900
H1288       H  0.11161921  0.53216404  0.27897011     0.12500
H1289       H  0.15147753  0.97188816  0.27337332     0.12600
C1290       C  0.18606571  0.52006449  0.31796100     0.62100
F1291       F  0.06149376  0.98687848  0.28616484    -0.23100
F1292       F  0.06085864  0.95467777  0.23947539    -0.20400
F1293       F  0.07425938  0.99636519  0.20943192    -0.20100
F1294       F  0.18683618  0.52688883  0.36531934    -0.20100
F1295       F  0.20518445  0.54215017  0.29258445    -0.20500
F1296       F  0.19297430  0.49975341  0.31502505    -0.23100
C1297       C  0.21835201  0.63169901  0.04802412    -0.06000
C1298       C  0.19388239  0.61188013  0.02851311     0.00000
C1299       C  0.17229622  0.59419039  0.05864315    -0.08600
C1300       C  0.17649758  0.59646763  0.10790045    -0.06000
C1301       C  0.20164600  0.61514493  0.12730430    -0.00100
C1302       C  0.22304551  0.63345716  0.09692702    -0.08500
C1303       C  0.25095717  0.65454983  0.11477902     0.61900
H1304       H  0.23452396  0.64486915  0.02392250     0.12500
H1305       H  0.16029777  0.58314434  0.13177819     0.12600
C1306       C  0.14545900  0.57238702  0.03909115     0.62100
F1307       F  0.26430541  0.64170437  0.13310218    -0.23100
F1308       F  0.26703774  0.67174369  0.07874977    -0.20400
F1309       F  0.24873529  0.67055706  0.14949948    -0.20100
F1310       F  0.14968755  0.55494355  0.01044072    -0.20100
F1311       F  0.13350513  0.58435406  0.01284870    -0.20500
F1312       F  0.12754004  0.55710055  0.07494547    -0.23100
C1313       C  0.17707609  0.71459472  0.17957794    -0.06000
C1314       C  0.17617586  0.70643482  0.13202067     0.00000
C1315       C  0.18775178  0.69027452  0.11931579    -0.08600
C1316       C  0.19719200  0.68020780  0.15562834    -0.06000
C1317       C  0.19620267  0.68649375  0.20373831    -0.00100
C1318       C  0.18669190  0.70452601  0.21606427    -0.08500
C1319       C  0.18565925  0.71206829  0.26739864     0.61900
H1320       H  0.16775905  0.72680794  0.18862664     0.12500
H1321       H  0.20392867  0.66595007  0.14635849     0.12600
C1322       C  0.18916050  0.68216037  0.06842158     0.62100
F1323       F  0.17930387  0.73272004  0.27094103    -0.23100
F1324       F  0.21064600  0.72078964  0.28830537    -0.20400
F1325       F  0.16615802  0.68975748  0.29204607    -0.20100
F1326       F  0.18547960  0.69840287  0.03578649    -0.20100
F1327       F  0.16947023  0.65544896  0.06161704    -0.20500
F1328       F  0.21437445  0.68466548  0.05963176    -0.23100
C1329       C  0.16630000  0.64949879  0.44536093    -0.06000
C1330       C  0.15155335  0.62598712  0.41807909     0.00000
C1331       C  0.12284344  0.61342700  0.41822395    -0.08600
C1332       C  0.11027981  0.62685880  0.43975872    -0.06000
C1333       C  0.12513134  0.65209217  0.46247639    -0.00100
C1334       C  0.15365690  0.66295550  0.46754135    -0.08500
C1335       C  0.17118809  0.68969855  0.49242535     0.61900
H1336       H  0.18819396  0.65868136  0.44543574     0.12500
H1337       H  0.08845378  0.61794677  0.43692581     0.12600
C1338       C  0.10483368  0.58684161  0.39315698     0.62100
F1339       F  0.19819773  0.69626042  0.49337121    -0.23100
F1340       F  0.16253340  0.68821333  0.53896583    -0.20400
F1341       F  0.16958743  0.71026893  0.46869057    -0.20100
F1342       F  0.11754125  0.57144070  0.38736895    -0.20100
F1343       F  0.09774309  0.59222782  0.34910774    -0.20500
F1344       F  0.08141157  0.57147588  0.41952078    -0.23100
C1345       C  0.07628221  0.78229804  0.58886830    -0.06000
C1346       C  0.09768707  0.78702069  0.55800436     0.00000
C1347       C  0.11943120  0.81380917  0.55152898    -0.08600
C1348       C  0.11920617  0.83512230  0.57692961    -0.06000
C1349       C  0.09829077  0.83037038  0.60902577    -0.00100
C1350       C  0.07627391  0.80356495  0.61496829    -0.08500
C1351       C  0.05286772  0.79736090  0.64865774     0.61900
H1352       H  0.05970894  0.76170757  0.59278461     0.12500
H1353       H  0.13574840  0.85567890  0.57271681     0.12600
C1354       C  0.14262931  0.81984333  0.51746986     0.62100
F1355       F  0.03128698  0.77150120  0.64184126    -0.23100
F1356       F  0.04358589  0.81563445  0.64156880    -0.20400
F1357       F  0.06150747  0.79912061  0.69500394    -0.20100
F1358       F  0.13267053  0.81251545  0.47194542    -0.20100
F1359       F  0.15534869  0.80535293  0.53092746    -0.20500
F1360       F  0.16185267  0.84713703  0.51681547    -0.23100
C1361       C  0.03413551  0.85149116  0.85417651    -0.06000
C1362       C  0.02774330  0.83750646  0.81078563     0.00000
C1363       C  0.50424698  0.80330412  0.80991246    -0.08600
C1364       C  0.48733703  0.79288595  0.85033828    -0.06000
C1365       C  0.49203628  0.80881458  0.89132146    -0.00100
C1366       C  0.01782010  0.84072081  0.89447628    -0.08500
C1367       C  0.02669361  0.85645029  0.94053253     0.61900
H1368       H  0.05190411  0.87155970  0.85647717     0.12500
H1369       H  0.46879015  0.77351193  0.84826899     0.12600
C1370       C  0.49918862  0.78587263  0.76629475     0.62100
F1371       F  0.05331053  0.86329919  0.94967527    -0.23100
F1372       F  0.50918862  0.83446087  0.97970617    -0.20400
F1373       F  0.02501116  0.87996099  0.93656318    -0.20100
F1374       F  0.52062470  0.78093928  0.76026411    -0.20100
F1375       F  0.00102634  0.80507491  0.72530584    -0.20500
F1376       F  0.47561600  0.76113246  0.77064083    -0.23100
C1377       C  0.15346758  0.50430372  0.70500232    -0.06000
C1378       C  0.12966292  0.99375843  0.69801840     0.00000
C1379       C  0.11530039  0.00802448  0.70850898    -0.08600
C1380       C  0.12409756  0.52778884  0.74205161    -0.06000
C1381       C  0.15218462  0.54082670  0.74894812    -0.00100
C1382       C  0.16732863  0.52959286  0.72824036    -0.08500
C1383       C  0.19796614  0.54376637  0.73254141     0.61900
H1384       H  0.16491313  0.49495780  0.69173966     0.12500
H1385       H  0.11288576  0.53680280  0.75784215     0.12600
C1386       C  0.08658165  0.99821064  0.69144871     0.62100
F1387       F  0.20896875  0.52963499  0.70984954    -0.23100
F1388       F  0.20513775  0.54630156  0.77994514    -0.20400
F1389       F  0.20905255  0.56924694  0.71194216    -0.20100
F1390       F  0.06822421  0.97746655  0.72043644    -0.20100
F1391       F  0.08400655  0.98915597  0.64510889    -0.20500
F1392       F  0.08018089  0.01891922  0.69201884    -0.23100
C1393       C  0.12320961  0.91483650  0.88565491    -0.06000
C1394       C  0.10509873  0.92167062  0.86409437     0.00000
C1395       C  0.09041996  0.93084914  0.89231925    -0.08600
C1396       C  0.09283500  0.93055301  0.94198298    -0.06000
C1397       C  0.10937577  0.92156914  0.96371690    -0.00100
C1398       C  0.12552625  0.91422028  0.93493429    -0.08500
C1399       C  0.14519152  0.90562558  0.95499162     0.61900
H1400       H  0.13475627  0.90860356  0.86312077     0.12500
H1401       H  0.08127866  0.93682011  0.96437180     0.12600
C1402       C  0.07208729  0.94050624  0.87063581     0.62100
F1403       F  0.16052880  0.90236229  0.91976329    -0.23100
F1404       F  0.13102880  0.88102427  0.97847336    -0.20400
F1405       F  0.16299836  0.92511518  0.98586984    -0.20100
F1406       F  0.05984562  0.94849222  0.90499660    -0.20100
F1407       F  0.05180236  0.91991098  0.84457094    -0.20500
F1408       F  0.08728316  0.96259797  0.84132105    -0.23100
C1409       C  0.42679853  0.70229031  0.56075504    -0.06000
C1410       C  0.41669728  0.69307453  0.60695922     0.00000
C1411       C  0.40989072  0.70931052  0.63588918    -0.08600
C1412       C  0.40766550  0.73060985  0.61415909    -0.06000
C1413       C  0.41288489  0.73652628  0.56522962    -0.00100
C1414       C  0.42492529  0.72381161  0.53905585    -0.08500
C1415       C  0.43328674  0.73093213  0.48744423     0.61900
H1416       H  0.43381995  0.69079140  0.54023069     0.12500
H1417       H  0.40012309  0.74174444  0.63468862     0.12600
C1418       C  0.40394418  0.70358764  0.68865338     0.62100
F1419       F  0.44636009  0.71750550  0.47009679    -0.23100
F1420       F  0.45104477  0.75838192  0.48276343    -0.20400
F1421       F  0.41058200  0.72391052  0.46008852    -0.20100
F1422       F  0.42550727  0.70287891  0.71022239    -0.20100
F1423       F  0.38069532  0.67897263  0.69571988    -0.20500
F1424       F  0.40033183  0.72346289  0.71074579    -0.23100
C1425       C  0.32706889  0.72645802  0.39904004    -0.06000
C1426       C  0.32019220  0.73056701  0.44535207     0.00000
C1427       C  0.29318763  0.71315055  0.46238083    -0.12200
C1428       C  0.27449930  0.69276357  0.43214077    -0.06000
C1429       C  0.28162913  0.68893620  0.38623103    -0.00100
C1430       C  0.30851813  0.70571190  0.36947610    -0.08500
C1431       C  0.31817778  0.70099242  0.32158854     0.61900
H1432       H  0.34746403  0.73951417  0.38595865     0.12500
H1433       H  0.25386538  0.67950703  0.44404877     0.12600
C1434       C  0.28367779  0.71535544  0.51207857     0.62100
F1435       F  0.34597614  0.71689501  0.31575286    -0.23100
F1436       F  0.30592668  0.70728585  0.28507673    -0.20400
F1437       F  0.31188560  0.67412143  0.31799382    -0.20100
F1438       F  0.28529557  0.74042558  0.51750224    -0.20100
F1439       F  0.29948233  0.71193498  0.54579407    -0.20500
F1440       F  0.25701166  0.69574645  0.52069921    -0.23100
C1441       C  0.49592958  0.88857775  0.54467494    -0.06000
C1442       C  0.48399346  0.86102831  0.53165939     0.00000
C1443       C  0.49853293  0.84689195  0.54072839    -0.08600
C1444       C  0.02517140  0.86416640  0.56729151    -0.06000
C1445       C  0.03492573  0.89050346  0.58445782    -0.00100
C1446       C  0.02135450  0.90502126  0.57260028    -0.08500
C1447       C  0.03209609  0.93400103  0.58898998     0.61900
H1448       H  0.48502200  0.89943325  0.53718850     0.12500
H1449       H  0.03598168  0.85350019  0.57698717     0.12600
C1450       C  0.48753822  0.81750427  0.52707155     0.62100
F1451       F  0.51798204  0.94273435  0.56651285    -0.23100
F1452       F  0.05887960  0.94950413  0.57480904    -0.20400
F1453       F  0.03046253  0.93460960  0.63800954    -0.20100
F1454       F  0.48268165  0.81457195  0.47875677    -0.20100
F1455       F  0.46385600  0.80168177  0.55199570    -0.20500
F1456       F  0.00732212  0.81184891  0.54103714    -0.23100
C1457       C  0.43065068  0.81081914  0.76387891    -0.06000
C1458       C  0.41396288  0.81547880  0.79516737     0.00000
C1459       C  0.39376783  0.82087220  0.77728513    -0.08600
C1460       C  0.38965800  0.81939361  0.72799565    -0.06000
C1461       C  0.40566141  0.81358702  0.69702369    -0.00100
C1462       C  0.42738546  0.81066783  0.71459007    -0.08500
C1463       C  0.44790950  0.80804172  0.68325971     0.61900
H1464       H  0.44653452  0.80741712  0.77815461     0.12500
H1465       H  0.37357832  0.82227685  0.71322613     0.12600
C1466       C  0.37636963  0.82749770  0.81005719     0.62100
F1467       F  0.47365643  0.82850826  0.69448866    -0.23100
F1468       F  0.44422792  0.81020301  0.63528278    -0.20400
F1469       F  0.44625673  0.78317018  0.69154437    -0.20100
F1470       F  0.39243337  0.85222230  0.83169106    -0.20100
F1471       F  0.36410424  0.80757054  0.84456749    -0.20500
F1472       F  0.35615721  0.82924379  0.78557952    -0.23100
C1473       C  0.34092582  0.85294791  0.37051674    -0.06000
C1474       C  0.35416375  0.88152270  0.36850889     0.00000
C1475       C  0.38202102  0.89610854  0.38167413    -0.08600
C1476       C  0.39401697  0.88196250  0.40305227    -0.06000
C1477       C  0.37983247  0.85369052  0.40968230    -0.00100
C1478       C  0.35330693  0.83873868  0.39057790    -0.08500
C1479       C  0.33733268  0.80801725  0.39436457     0.61900
H1480       H  0.31999314  0.84175902  0.35933762     0.12500
H1481       H  0.41436172  0.89321866  0.41712222     0.12600
C1482       C  0.39924282  0.92659602  0.37444163     0.62100
F1483       F  0.31229410  0.79742455  0.37262567    -0.23100
F1484       F  0.33306712  0.80028186  0.44168290    -0.20400
F1485       F  0.35158111  0.79695466  0.37240647    -0.20100
F1486       F  0.39346497  0.94019926  0.40944268    -0.20100
F1487       F  0.39430516  0.93390314  0.33013538    -0.20500
F1488       F  0.42665074  0.93486638  0.37660495    -0.23100
C1489       C  0.19358300  0.92812617  0.77183554    -0.06000
C1490       C  0.18655791  0.92016814  0.72430737     0.00000
C1491       C  0.20359830  0.91400572  0.69619964    -0.08600
C1492       C  0.22448273  0.91166065  0.71891669    -0.06000
C1493       C  0.22927648  0.91624534  0.76803282    -0.00100
C1494       C  0.21494221  0.92651369  0.79424433    -0.08500
C1495       C  0.22092385  0.93405189  0.84615764     0.61900
H1496       H  0.18071250  0.93357222  0.79237707     0.12500
H1497       H  0.23619136  0.90452254  0.69902037     0.12600
C1498       C  0.19876625  0.90838637  0.64338672     0.62100
F1499       F  0.20343552  0.94208817  0.86536911    -0.23100
F1500       F  0.24707603  0.95538103  0.85042821    -0.20400
F1501       F  0.21824968  0.91206857  0.87214645    -0.20100
F1502       F  0.19955059  0.93057202  0.62098974    -0.20100
F1503       F  0.17372470  0.88577269  0.63616064    -0.20500
F1504       F  0.21832631  0.90374224  0.62245444    -0.23100
C1505       C  0.18478661  0.78118360  0.91720461    -0.06000
C1506       C  0.17847133  0.79001746  0.95935605     0.00000
C1507       C  0.19515416  0.81720691  0.97431320    -0.08600
C1508       C  0.21653816  0.83498739  0.94424200    -0.06000
C1509       C  0.22220709  0.82652228  0.90056586    -0.00100
C1510       C  0.20660521  0.79855194  0.88784088    -0.08500
C1511       C  0.21246943  0.78631481  0.84417346     0.61900
H1512       H  0.17230612  0.76008069  0.90752386     0.12500
H1513       H  0.22891252  0.85593860  0.95472670     0.12600
C1514       C  0.19027126  0.82781253  0.02096466     0.62100
F1515       F  0.19567237  0.75848889  0.84178665    -0.23100
F1516       F  0.23888503  0.79108630  0.84577264    -0.20400
F1517       F  0.20842349  0.79733982  0.80316719    -0.20100
F1518       F  0.19514824  0.81518497  0.05881500    -0.20100
F1519       F  0.16379763  0.82285848  0.02328911    -0.20500
F1520       F  0.20721401  0.85550254  0.02577114    -0.23100
C1521       C  0.33949803  0.85431307  0.69832152    -0.06000
C1522       C  0.31637220  0.83403510  0.72118300     0.00000
C1523       C  0.30174456  0.80814085  0.70052901    -0.08600
C1524       C  0.31045723  0.80378518  0.65630486    -0.06000
C1525       C  0.33353241  0.82428440  0.63275302    -0.00100
C1526       C  0.34806727  0.85049422  0.65374624    -0.08500
C1527       C  0.37295437  0.87462872  0.63155255     0.61900
H1528       H  0.35037727  0.87396179  0.71515221     0.12500
H1529       H  0.29972942  0.78366635  0.64092277     0.12600
C1530       C  0.27792476  0.78425873  0.72464760     0.62100
F1531       F  0.38001968  0.89858347  0.65540844    -0.23100
F1532       F  0.36822679  0.87868847  0.58508188    -0.20400
F1533       F  0.39495344  0.87052980  0.63319098    -0.20100
F1534       F  0.25485619  0.77615213  0.69774371    -0.20100
F1535       F  0.27300764  0.79017347  0.77007680    -0.20500
F1536       F  0.28325601  0.76289568  0.72807044    -0.23100
C1537       C  0.37390603  0.90084473  0.93530346    -0.06000
C1538       C  0.34570209  0.88601274  0.92896522     0.00000
C1539       C  0.33130958  0.85922897  0.94793079    -0.08600
C1540       C  0.34606990  0.84735364  0.96762590    -0.06000
C1541       C  0.37462526  0.86126478  0.96894686    -0.00100
C1542       C  0.38855407  0.88928901  0.95616990    -0.08500
C1543       C  0.41898189  0.90705693  0.96193131     0.61900
H1544       H  0.38478702  0.92134167  0.92120538     0.12500
H1545       H  0.33539832  0.82626715  0.97861893     0.12600
C1546       C  0.30070293  0.84235251  0.94382595     0.62100
F1547       F  0.42613993  0.93422415  0.96423096    -0.23100
F1548       F  0.43232776  0.90356467  0.92353085    -0.20400
F1549       F  0.42752863  0.90062172  0.00358887    -0.20100
F1550       F  0.29353898  0.83808142  0.89641968    -0.20100
F1551       F  0.28858044  0.85573698  0.96526229    -0.20500
F1552       F  0.29069980  0.81727721  0.96582014    -0.23100
C1553       C  0.37643379  0.49738054  0.78392913    -0.06000
C1554       C  0.35350140  0.98660501  0.79447679     0.00000
C1555       C  0.34140537  0.00359278  0.79411668    -0.08600
C1556       C  0.34939481  0.52706862  0.77388699    -0.06000
C1557       C  0.37443957  0.53613201  0.75084776    -0.00100
C1558       C  0.38881699  0.52187070  0.75789127    -0.08500
C1559       C  0.41670223  0.53195911  0.73588868     0.61900
H1560       H  0.38910089  0.98424503  0.77549825     0.12500
H1561       H  0.33880414  0.53840906  0.76812387     0.12600
C1562       C  0.31380007  0.99469143  0.81608024     0.62100
F1563       F  0.42911861  0.51783690  0.75304556    -0.23100
F1564       F  0.43311726  0.55912936  0.74638125    -0.20400
F1565       F  0.41449943  0.52884684  0.68708889    -0.20100
F1566       F  0.31443112  0.99008763  0.86422926    -0.20100
F1567       F  0.29478137  0.97130865  0.79420539    -0.20500
F1568       F  0.30575649  0.01406498  0.81060959    -0.23100
C1569       C  0.31152621  0.88866988  0.60694807    -0.06000
C1570       C  0.30480998  0.90332669  0.63951043     0.00000
C1571       C  0.30125814  0.92507458  0.62355236    -0.08600
C1572       C  0.30143976  0.92946386  0.57459709    -0.06000
C1573       C  0.30715629  0.91426542  0.54188918    -0.00100
C1574       C  0.31348186  0.89434742  0.55789101    -0.08500
C1575       C  0.32278975  0.87975592  0.52360575     0.61900
H1576       H  0.31510363  0.87272348  0.62018565     0.12500
H1577       H  0.29741912  0.94524818  0.56169226     0.12600
C1578       C  0.29859544  0.94507811  0.65607340     0.62100
F1579       F  0.32157141  0.85696110  0.54425391    -0.23100
F1580       F  0.34923368  0.89731823  0.50963917    -0.20400
F1581       F  0.30682066  0.87140484  0.48358524    -0.20100
F1582       F  0.29965943  0.94022418  0.70394724    -0.20100
F1583       F  0.27432512  0.94451991  0.64734486    -0.20500
F1584       F  0.31976161  0.97075843  0.64623045    -0.23100
C1585       C  0.30024070  0.58752558  0.21678204    -0.06000
C1586       C  0.32229010  0.59520970  0.24716047     0.00000
C1587       C  0.31848046  0.59757524  0.29674553    -0.08600
C1588       C  0.29462642  0.59728342  0.31234997    -0.06000
C1589       C  0.27417482  0.59339008  0.28043501    -0.00100
C1590       C  0.27600401  0.58609016  0.23284873    -0.08500
C1591       C  0.25333629  0.57723148  0.19722342     0.61900
H1592       H  0.30243724  0.58422346  0.17941358     0.12500
H1593       H  0.29295646  0.60243641  0.34887251     0.12600
C1594       C  0.33993778  0.60217349  0.33321458     0.62100
F1595       F  0.24753250  0.55217157  0.17955090    -0.23100
F1596       F  0.26168435  0.59563614  0.16007725    -0.20400
F1597       F  0.22979540  0.57488549  0.21666617    -0.20100
F1598       F  0.35842890  0.62957079  0.33603726    -0.20100
F1599       F  0.35325770  0.58805506  0.32090038    -0.20500
F1600       F  0.32837971  0.59313614  0.37774943    -0.23100
C1601       C  0.38081896  0.67583063  0.07706296    -0.06000
C1602       C  0.40191976  0.68255649  0.10970192     0.00000
C1603       C  0.42254902  0.71020180  0.11364277    -0.08600
C1604       C  0.42044991  0.73005577  0.08643843    -0.06000
C1605       C  0.39927814  0.72329703  0.05434776    -0.00100
C1606       C  0.37931020  0.69570264  0.04887489    -0.08500
C1607       C  0.35650191  0.68721155  0.01328458     0.61900
H1608       H  0.36541475  0.65480908  0.07377461     0.12500
H1609       H  0.43569000  0.75107008  0.08947871     0.12600
C1610       C  0.44722131  0.71896510  0.14510651     0.62100
F1611       F  0.33658002  0.66044967  0.01978426    -0.23100
F1612       F  0.36680774  0.69003346  0.96765631    -0.20400
F1613       F  0.34444869  0.70324159  0.01808182    -0.20100
F1614       F  0.45845298  0.70234492  0.13759694    -0.20100
F1615       F  0.43977126  0.71761395  0.19235685    -0.20500
F1616       F  0.46715646  0.74537267  0.13544571    -0.23100
C1617       C  0.47069046  0.64469266  0.05134394    -0.06000
C1618       C  0.46147481  0.61803404  0.06721143     0.00000
C1619       C  0.47716656  0.60541736  0.05667123    -0.08600
C1620       C  0.00332245  0.62537710  0.03247942    -0.06000
C1621       C  0.01491868  0.65333685  0.02228937    -0.00100
C1622       C  0.99837374  0.66578538  0.02801644    -0.08500
C1623       C  0.00874244  0.69562661  0.01688779     0.61900
H1624       H  0.45836574  0.65398095  0.05963837     0.12500
H1625       H  0.01547716  0.61562447  0.02682853     0.12600
C1626       C  0.46799395  0.57590441  0.06771895     0.62100
F1627       F  0.48538502  0.69625543  0.02378460    -0.23100
F1628       F  0.01637799  0.70081177  0.96955430    -0.20400
F1629       F  0.03062253  0.71155427  0.04551818    -0.20100
F1630       F  0.44213768  0.56230622  0.08687623    -0.20100
F1631       F  0.48580430  0.57435289  0.09941792    -0.20500
F1632       F  0.98196354  0.57051211  0.04783833    -0.23100
C1633       C  0.49660443  0.69550256  0.36858751    -0.06000
C1634       C  0.00608167  0.68718016  0.38731200     0.00000
C1635       C  0.99545136  0.66053991  0.36883571    -0.08600
C1636       C  0.98487234  0.65555284  0.32279101    -0.06000
C1637       C  0.47918355  0.66502131  0.30118168    -0.00100
C1638       C  0.48525060  0.69000840  0.32281728    -0.08500
C1639       C  0.48063516  0.71120394  0.29779489     0.61900
H1640       H  0.50324765  0.71524972  0.38424078     0.12500
H1641       H  0.97851135  0.63587118  0.30727655     0.12600
C1642       C  0.99470812  0.63703610  0.39681687     0.62100
F1643       F  0.49198855  0.73548518  0.32233206    -0.23100
F1644       F  0.45308301  0.70185963  0.29429751    -0.20400
F1645       F  0.49221854  0.71648020  0.25285234    -0.20100
F1646       F  0.98247946  0.63479674  0.44054509    -0.20100
F1647       F  0.02043299  0.64076543  0.40333910    -0.20500
F1648       F  0.98000975  0.61252217  0.37369949    -0.23100
C1649       C  0.34081718  0.50681652  0.20697825    -0.06000
C1650       C  0.36869707  0.51763574  0.19760228     0.00000
C1651       C  0.38120205  0.50190237  0.20977385    -0.08600
C1652       C  0.36778428  0.98193557  0.23501876    -0.06000
C1653       C  0.34101272  0.97287826  0.25006091    -0.00100
C1654       C  0.32731851  0.98664220  0.23394667    -0.08500
C1655       C  0.29797464  0.97673841  0.24770853     0.61900
H1656       H  0.33109810  0.51839762  0.19647673     0.12500
H1657       H  0.37803386  0.97112320  0.24713814     0.12600
C1658       C  0.40977729  0.50968586  0.19387246     0.62100
F1659       F  0.28822475  0.99273364  0.22808691    -0.23100
F1660       F  0.29557483  0.97715963  0.29660870    -0.20400
F1661       F  0.28208488  0.95049021  0.23170890    -0.20100
F1662       F  0.42853077  0.52929382  0.22353812    -0.20100
F1663       F  0.41408132  0.51939904  0.14769203    -0.20500
F1664       F  0.41387204  0.48745902  0.19481664    -0.23100
C1665       C  0.42517147  0.62652625  0.39308726    -0.06000
C1666       C  0.41789003  0.60309565  0.36609400     0.00000
C1667       C  0.41122745  0.57834838  0.38957992    -0.08600
C1668       C  0.40809559  0.57729928  0.43952320    -0.06000
C1669       C  0.41278900  0.60044595  0.46541329    -0.00100
C1670       C  0.42341383  0.62571264  0.44242547    -0.08500
C1671       C  0.43185473  0.65167091  0.46959211     0.61900
H1672       H  0.43186971  0.64577308  0.37512343     0.12500
H1673       H  0.40081443  0.55823860  0.45843263     0.12600
C1674       C  0.40690670  0.55331741  0.36250904     0.62100
F1675       F  0.44841597  0.67419460  0.44217058    -0.23100
F1676       F  0.44619501  0.65235568  0.50976634    -0.20400
F1677       F  0.40899661  0.65309381  0.48256218    -0.20100
F1678       F  0.38659537  0.54620621  0.32934658    -0.20100
F1679       F  0.39970452  0.53136330  0.39255184    -0.20500
F1680       F  0.43063432  0.55856713  0.33935871    -0.23100
Fe1681     Fe  0.93482288  0.10280597  0.21851050     1.65800
Fe1682     Fe  0.88376006  0.10045665  0.14933572     1.73200
Fe1683     Fe  0.90890135  0.14510530  0.24136417     1.54400
O1684       O  0.91096371  0.12717282  0.30289443    -0.81900
O1685       O  0.88993441  0.13796855  0.12443069    -0.80200
O1686       O  0.92288335  0.09570277  0.28860838    -0.84400
O1687       O  0.96655259  0.14050533  0.23627236    -0.79200
O1688       O  0.86784487  0.12454946  0.24972391    -0.81000
O1689       O  0.91550083  0.10596795  0.10347390    -0.83700
C1690       C  0.96496851  0.15972145  0.25628071     0.97000
C1691       C  0.91596167  0.10872723  0.31673768     1.04500
O1692       O  0.90909631  0.11609523  0.20299590    -1.12700
O1693       O  0.87313103  0.06055836  0.16652477    -0.75200
O1694       O  0.90759807  0.06278480  0.20695846    -0.78600
O1695       O  0.95012220  0.16824789  0.23853947    -0.79300
C1696       C  0.88429897  0.04926931  0.18922434     0.95900
O1697       O  0.94893153  0.10910915  0.15014358    -0.77300
O1698       O  0.85045375  0.09414680  0.19156894    -0.82500
C1699       C  0.89919706  0.16163520  0.14177538     0.98500
C1700       C  0.84794975  0.10488009  0.22984940     1.04500
O1701       O  0.90676944  0.16663151  0.18446683    -0.78100
C1702       C  0.93960230  0.11013034  0.10979200     1.02800
Fe1703     Fe  0.83113330  0.40217041  0.78596908     1.65800
Fe1704     Fe  0.78760715  0.40904208  0.85964917     1.73200
Fe1705     Fe  0.76369059  0.36513548  0.76808819     1.54400
O1706       O  0.77850168  0.38751815  0.70695245    -0.81900
O1707       O  0.75368153  0.37237723  0.88105649    -0.80200
O1708       O  0.82250176  0.40013682  0.71374356    -0.84400
O1709       O  0.82119302  0.36213766  0.78829522    -0.79200
O1710       O  0.73988499  0.38268403  0.77795522    -0.81000
O1711       O  0.81063501  0.39748670  0.90260453    -0.83700
C1712       C  0.80526672  0.34557510  0.75805764     0.97000
C1713       C  0.80217889  0.39673942  0.68951514     1.04500
O1714       O  0.79422791  0.39247678  0.80439351    -1.12700
O1715       O  0.82031389  0.44815627  0.84344397    -0.75200
O1716       O  0.84270089  0.44267245  0.78289023    -0.78600
O1717       O  0.78270291  0.34383386  0.74885923    -0.79300
C1718       C  0.83753345  0.45781618  0.80924796     0.95900
O1719       O  0.84508592  0.40522485  0.85470300    -0.77300
O1720       O  0.76374006  0.42033391  0.81947038    -0.82500
C1721       C  0.74237357  0.34766450  0.86729720     0.98500
C1722       C  0.74505258  0.40623912  0.79013260     1.04500
O1723       O  0.74766010  0.34132942  0.82707156    -0.78100
C1724       C  0.83294772  0.39769104  0.89447634     1.02800
Fe1725     Fe  0.89890283  0.33989079  0.55401081     1.65800
Fe1726     Fe  0.90295388  0.29556615  0.47824155     1.73200
Fe1727     Fe  0.86168657  0.27242183  0.57349772     1.54400
O1728       O  0.88715618  0.28593239  0.63052614    -0.81900
O1729       O  0.86505784  0.26169062  0.46164534    -0.80200
O1730       O  0.90185053  0.33057718  0.62414773    -0.84400
O1731       O  0.85982023  0.33168968  0.56417150    -0.79200
O1732       O  0.87662661  0.24698422  0.55620298    -0.81000
O1733       O  0.89115822  0.31872193  0.43693058    -0.83700
C1734       C  0.84503012  0.31559824  0.59628548     0.97000
C1735       C  0.89807416  0.30975459  0.64752927     1.04500
O1736       O  0.88796950  0.30290669  0.53504270    -1.12700
O1737       O  0.94298409  0.32760473  0.48970986    -0.75200
O1738       O  0.93905291  0.35196381  0.54781459    -0.78600
O1739       O  0.84294905  0.29246337  0.60149091    -0.79300
C1740       C  0.95345439  0.34588205  0.52160893     0.95900
O1741       O  0.89618424  0.35202731  0.48578721    -0.77300
O1742       O  0.91491429  0.27218373  0.51716489    -0.82500
C1743       C  0.84061266  0.25139820  0.47735043     0.98500
C1744       C  0.90053697  0.25273823  0.54518975     1.04500
O1745       O  0.83544964  0.25825720  0.51734665    -0.78100
C1746       C  0.88962892  0.34004142  0.44589750     1.02800
Fe1747     Fe  0.57097620  0.41286022  0.72137818     1.65800
Fe1748     Fe  0.61552068  0.41396322  0.64025017     1.73200
Fe1749     Fe  0.59661593  0.37083347  0.73474358     1.54400
O1750       O  0.59802050  0.39046656  0.79697596    -0.81900
O1751       O  0.60470906  0.37590892  0.61251443    -0.80200
O1752       O  0.59455224  0.42748058  0.78142984    -0.84400
O1753       O  0.54592675  0.37870496  0.76059130    -0.79200
O1754       O  0.63785161  0.39219254  0.73487194    -0.81000
O1755       O  0.58078320  0.41082321  0.60603421    -0.83700
C1756       C  0.54244796  0.35496119  0.76556733     0.97000
C1757       C  0.59996806  0.41302932  0.80937743     1.04500
O1758       O  0.59428731  0.39878873  0.69812325    -1.12700
O1759       O  0.62986411  0.45338475  0.66469227    -0.75200
O1760       O  0.59182397  0.45052449  0.68950687    -0.78600
O1761       O  0.55542753  0.34670820  0.74047570    -0.79300
C1762       C  0.61698448  0.46440670  0.68217620     0.95900
O1763       O  0.54780156  0.39799362  0.66156090    -0.77300
O1764       O  0.65129926  0.41787397  0.66941662    -0.82500
C1765       C  0.59821051  0.35299528  0.63138443     0.98500
C1766       C  0.65630684  0.40921762  0.70784150     1.04500
O1767       O  0.59562363  0.34888721  0.67588611    -0.78100
C1768       C  0.55580426  0.40120040  0.61834493     1.02800
Fe1769     Fe  0.66925654  0.11198824  0.27781868     1.65800
Fe1770     Fe  0.71014643  0.10500202  0.35917632     1.73200
Fe1771     Fe  0.73718755  0.14548601  0.26257443     1.54400
O1772       O  0.72224452  0.12079437  0.20528500    -0.81900
O1773       O  0.74362861  0.14233151  0.37957237    -0.80200
O1774       O  0.67911061  0.11094959  0.20693412    -0.84400
O1775       O  0.67959133  0.15213890  0.26999356    -0.79200
O1776       O  0.75923978  0.12652968  0.27697905    -0.81000
O1777       O  0.68550616  0.11622403  0.39770669    -0.83700
C1778       C  0.69815491  0.16814132  0.24188994     0.97000
C1779       C  0.70005614  0.11394335  0.18471788     1.04500
O1780       O  0.70546227  0.12086224  0.30033721    -1.12700
O1781       O  0.67791067  0.06574503  0.34303913    -0.75200
O1782       O  0.65594714  0.07113549  0.28206621    -0.78600
O1783       O  0.72031194  0.16797364  0.23726112    -0.79300
C1784       C  0.66055686  0.05602987  0.30948234     0.95900
O1785       O  0.65484239  0.11295758  0.34492788    -0.77300
O1786       O  0.73551353  0.09259243  0.32724045    -0.82500
C1787       C  0.75741806  0.16604152  0.36102106     0.98500
C1788       C  0.75462560  0.10475068  0.29730192     1.04500
O1789       O  0.75405568  0.17133241  0.31855684    -0.78100
C1790       C  0.66412853  0.11708708  0.38687759     1.02800
Fe1791     Fe  0.66856964  0.07580561  0.89145294     1.65800
Fe1792     Fe  0.71110892  0.12092054  0.80931014     1.73200
Fe1793     Fe  0.73647366  0.10499095  0.90589879     1.54400
O1794       O  0.71720916  0.10281151  0.96867194    -0.81900
O1795       O  0.73962354  0.11130234  0.78336393    -0.80200
O1796       O  0.67559078  0.09602588  0.95497637    -0.84400
O1797       O  0.67942640  0.04972283  0.92326811    -0.79200
O1798       O  0.75234937  0.14604222  0.90784443    -0.81000
O1799       O  0.68160789  0.08575524  0.77373447    -0.83700
C1800       C  0.70050306  0.04747261  0.92780955     0.97000
C1801       C  0.69525219  0.10152852  0.98259117     1.04500
O1802       O  0.70553027  0.10047339  0.86842715    -1.12700
O1803       O  0.68449648  0.13425781  0.83097465    -0.75200
O1804       O  0.65148409  0.09858549  0.86706867    -0.78600
O1805       O  0.72315838  0.06416714  0.90965641    -0.79300
C1806       C  0.66214761  0.12308565  0.85344558     0.95900
O1807       O  0.65988481  0.05385955  0.82963227    -0.77300
O1808       O  0.74152511  0.15736237  0.83859085    -0.82500
C1809       C  0.75829513  0.10862959  0.80328234     0.98500
C1810       C  0.75421285  0.16367100  0.87802425     1.04500
O1811       O  0.76001077  0.10779002  0.84797635    -0.78100
C1812       C  0.66579815  0.06105912  0.78642821     1.02800
Fe1813     Fe  0.55910281  0.17227869  0.45123265     1.65800
Fe1814     Fe  0.60967364  0.21854246  0.51861212     1.73200
Fe1815     Fe  0.58478148  0.23900077  0.42863088     1.54400
O1816       O  0.59092625  0.22360237  0.36721341    -0.81900
O1817       O  0.60800222  0.25384857  0.53651033    -0.80200
O1818       O  0.56266666  0.17938469  0.37814675    -0.84400
O1819       O  0.52719697  0.17989388  0.45539172    -0.79200
O1820       O  0.62624354  0.26339573  0.43302936    -0.81000
O1821       O  0.57709844  0.19695279  0.56506010    -0.83700
C1822       C  0.52438901  0.19487389  0.42521094     0.97000
C1823       C  0.57662069  0.19977739  0.35138911     1.04500
O1824       O  0.58469612  0.20988417  0.46591534    -1.12700
O1825       O  0.61585213  0.18495707  0.50672530    -0.75200
O1826       O  0.58939774  0.16252962  0.44600943    -0.78600
O1827       O  0.54371292  0.21833163  0.41545809    -0.79300
C1828       C  0.60895417  0.16743357  0.47351999     0.95900
O1829       O  0.55182490  0.16017849  0.52182089    -0.77300
O1830       O  0.64259244  0.24096581  0.47400472    -0.82500
C1831       C  0.59353042  0.26430033  0.52351421     0.98500
C1832       C  0.64564974  0.25945617  0.44468692     1.04500
O1833       O  0.57839621  0.25622241  0.48745505    -0.78100
C1834       C  0.55656828  0.17342068  0.56026778     1.02800
Fe1835     Fe  0.83060734  0.44087241  0.39588967     1.65800
Fe1836     Fe  0.78723361  0.39413907  0.31770307     1.73200
Fe1837     Fe  0.76282893  0.41141450  0.41519678     1.54400
O1838       O  0.78290987  0.41491891  0.47817546    -0.81900
O1839       O  0.75866251  0.40386083  0.29239431    -0.80200
O1840       O  0.82483473  0.42285673  0.46147616    -0.84400
O1841       O  0.81996378  0.46788569  0.42426270    -0.79200
O1842       O  0.74679044  0.37020022  0.41907179    -0.81000
O1843       O  0.81653055  0.42811733  0.27907450    -0.83700
C1844       C  0.79903006  0.47045256  0.42876596     0.97000
C1845       C  0.80560274  0.41747042  0.49051582     1.04500
O1846       O  0.79344008  0.41545437  0.37600402    -1.12700
O1847       O  0.81456380  0.38128404  0.33804023    -0.75200
O1848       O  0.84721545  0.41743245  0.37326695    -0.78600
O1849       O  0.77567361  0.45221298  0.41655401    -0.79300
C1850       C  0.83767523  0.39351696  0.35774657     0.95900
O1851       O  0.83877177  0.46106160  0.33212809    -0.77300
O1852       O  0.75648200  0.35837337  0.34901746    -0.82500
C1853       C  0.74014545  0.40676894  0.31288328     0.98500
C1854       C  0.74399518  0.35240124  0.38897486     1.04500
O1855       O  0.73868355  0.40786099  0.35772965    -0.78100
C1856       C  0.83260697  0.45292501  0.28966772     1.02800
Fe1857     Fe  0.59616967  0.17312116  0.05807455     1.65800
Fe1858     Fe  0.59497768  0.21885288  0.98003897     1.73200
Fe1859     Fe  0.63186418  0.24059920  0.08154612     1.54400
O1860       O  0.61291666  0.21911865  0.14205740    -0.81900
O1861       O  0.63366127  0.24846737  0.95934245    -0.80200
O1862       O  0.58167803  0.17692870  0.12307992    -0.84400
O1863       O  0.63264974  0.18297632  0.08951503    -0.79200
O1864       O  0.60628264  0.25628318  0.08320522    -0.81000
O1865       O  0.60242628  0.19104361  0.94147229    -0.83700
C1866       C  0.65490599  0.20433157  0.09758230     0.97000
C1867       C  0.59325185  0.19597266  0.15280114     1.04500
O1868       O  0.60773077  0.21091617  0.03966600    -1.12700
O1869       O  0.55480568  0.19070475  0.99538379    -0.75200
O1870       O  0.55714312  0.15740417  0.03266274    -0.78600
O1871       O  0.65969900  0.22774138  0.08520448    -0.79300
C1872       C  0.54343909  0.16764767  0.01566557     0.95900
O1873       O  0.61032511  0.16646206  0.99507602    -0.77300
O1874       O  0.58690409  0.24793899  0.01198294    -0.82500
C1875       C  0.65381528  0.26629346  0.98233472     0.98500
C1876       C  0.59163823  0.25932693  0.05268695     1.04500
O1877       O  0.65460182  0.26636381  0.02725459    -0.78100
C1878       C  0.61019945  0.17398172  0.95260830     1.02800
Fe1879     Fe  0.60759661  0.44658547  0.10462313     1.65800
Fe1880     Fe  0.59799632  0.39822242  0.18570169     1.73200
Fe1881     Fe  0.64100795  0.41132108  0.09329574     1.54400
O1882       O  0.61884098  0.40354042  0.03274165    -0.81900
O1883       O  0.63310262  0.39763146  0.20809644    -0.80200
O1884       O  0.60981464  0.43751910  0.03393576    -0.84400
O1885       O  0.64800597  0.47526423  0.10171630    -0.79200
O1886       O  0.62019383  0.37032728  0.10717350    -0.81000
O1887       O  0.61168737  0.43408718  0.22408009    -0.83700
C1888       C  0.66487479  0.47304700  0.07488386     0.97000
C1889       C  0.61346836  0.42003940  0.01152180     1.04500
O1890       O  0.61555230  0.41880073  0.12808858    -1.12700
O1891       O  0.56043566  0.39548393  0.17045972    -0.75200
O1892       O  0.56662687  0.41963837  0.10432898    -0.78600
O1893       O  0.66482308  0.45073597  0.07006485    -0.79300
C1894       C  0.55118985  0.40225180  0.13479155     0.95900
O1895       O  0.60567903  0.46036286  0.17196570    -0.77300
O1896       O  0.58352103  0.36148877  0.14975608    -0.82500
C1897       C  0.65756356  0.40821235  0.19309213     0.98500
C1898       C  0.59634248  0.35412636  0.12159539     1.04500
O1899       O  0.66482088  0.41873605  0.15206058    -0.78100
C1900       C  0.61177404  0.45602003  0.21322204     1.02800
Fe1901     Fe  0.89894497  0.07222706  0.61055493     1.65800
Fe1902     Fe  0.90171412  0.11896989  0.68899674     1.73200
Fe1903     Fe  0.86633550  0.10731574  0.58711185     1.54400
O1904       O  0.88438897  0.10236247  0.52673952    -0.81900
O1905       O  0.86329162  0.11010101  0.70952647    -0.80200
O1906       O  0.91573472  0.09124048  0.54773734    -0.84400
O1907       O  0.86270365  0.04880589  0.57436620    -0.79200
O1908       O  0.89429257  0.14751948  0.58506467    -0.81000
O1909       O  0.89468763  0.08352150  0.72617845    -0.83700
C1910       C  0.84078048  0.04944344  0.56764226     0.97000
C1911       C  0.90403139  0.09822447  0.51707577     1.04500
O1912       O  0.88894827  0.09953922  0.62904222    -1.12700
O1913       O  0.94132717  0.13036737  0.67170248    -0.75200
O1914       O  0.93786060  0.09309601  0.63997447    -0.78600
O1915       O  0.83661727  0.06763858  0.58501766    -0.79300
C1916       C  0.95224951  0.11763684  0.65339431     0.95900
O1917       O  0.88193162  0.05077013  0.67178819    -0.77300
O1918       O  0.90932164  0.15629419  0.65948165    -0.82500
C1919       C  0.84457904  0.11123367  0.68663905     0.98500
C1920       C  0.90674903  0.16406590  0.61814070     1.04500
O1921       O  0.84499537  0.11301856  0.64169686    -0.78100
C1922       C  0.88423452  0.05852067  0.71461325     1.02800
Fe1923     Fe  0.93667818  0.33939110  0.93950348     1.65800
Fe1924     Fe  0.88971921  0.29613184  0.01895002     1.73200
Fe1925     Fe  0.90837873  0.27165761  0.92328169     1.54400
O1926       O  0.91313636  0.29152036  0.85944216    -0.81900
O1927       O  0.89801398  0.26643982  0.04536448    -0.80200
O1928       O  0.91873617  0.33264361  0.87444921    -0.84400
O1929       O  0.96431068  0.32860017  0.91325599    -0.79200
O1930       O  0.86768173  0.25650068  0.91768319    -0.81000
O1931       O  0.92392175  0.32514099  0.05729909    -0.83700
C1932       C  0.96715748  0.30767289  0.91079457     0.97000
C1933       C  0.91442282  0.31357684  0.84631352     1.04500
O1934       O  0.91169182  0.30231349  0.96119942    -1.12700
O1935       O  0.87757386  0.32424753  0.99931398    -0.75200
O1936       O  0.91265182  0.35591777  0.95948103    -0.78600
O1937       O  0.94901313  0.28444615  0.92447515    -0.79300
C1938       C  0.88928443  0.34695819  0.97767183     0.95900
O1939       O  0.95632953  0.34891466  0.00317063    -0.77300
O1940       O  0.85402402  0.26669708  0.98528934    -0.82500
C1941       C  0.90036154  0.24757011  0.02516102     0.98500
C1942       C  0.84898474  0.25471504  0.94503540     1.04500
O1943       O  0.90313807  0.24686512  0.98064579    -0.78100
C1944       C  0.94834071  0.34276679  0.04592996     1.02800
C1945       C  0.00613251  0.36022427  0.13140695    -0.06000
C1946       C  0.52137196  0.38824902  0.12634618     0.00000
C1947       C  0.50814546  0.40210484  0.10812150    -0.08600
C1948       C  0.98231221  0.38582339  0.08215994    -0.06000
C1949       C  0.96933561  0.35735142  0.08263600    -0.00100
C1950       C  0.98071746  0.34430489  0.10957869    -0.08500
C1951       C  0.96699705  0.31364573  0.11218629     0.61900
H1952       H  0.51667731  0.34940258  0.14541805     0.12500
H1953       H  0.97324596  0.39552738  0.06167187     0.12600
C1954       C  0.52170959  0.43282457  0.10694498     0.62100
F1955       F  0.98115381  0.30492593  0.14058883    -0.23100
F1956       F  0.96525978  0.30323124  0.06707628    -0.20400
F1957       F  0.94120773  0.30355972  0.13115599    -0.20100
F1958       F  0.53906336  0.44278188  0.06820169    -0.20100
F1959       F  0.53613755  0.44350508  0.14825354    -0.20500
F1960       F  0.50273161  0.44148141  0.10344924    -0.23100
C1961       C  0.58454258  0.32232857  0.05450254    -0.06000
C1962       C  0.58422076  0.32591131  0.10393127     0.00000
C1963       C  0.57792742  0.30381011  0.13447971    -0.08600
C1964       C  0.57688290  0.28032668  0.11514510    -0.06000
C1965       C  0.58165715  0.27843219  0.06629289    -0.00100
C1966       C  0.58282389  0.29860452  0.03485951    -0.08500
C1967       C  0.58382417  0.29597623  0.98129502     0.61900
H1968       H  0.58814593  0.33917437  0.03150017     0.12500
H1969       H  0.57456031  0.26414062  0.13874354     0.12600
C1970       C  0.57404296  0.30581959  0.18736188     0.62100
F1971       F  0.58302282  0.31707853  0.95768174    -0.23100
F1972       F  0.56167426  0.27197690  0.96695119    -0.20400
F1973       F  0.60741755  0.29606283  0.96795645    -0.20100
F1974       F  0.55296325  0.31122397  0.19479648    -0.20100
F1975       F  0.59751412  0.32639291  0.20688068    -0.20500
F1976       F  0.56771344  0.28193990  0.21076732    -0.23100
C1977       C  0.68562603  0.42246919  0.26597188    -0.06000
C1978       C  0.67837573  0.40751517  0.22376212     0.00000
C1979       C  0.69129790  0.39241601  0.21090713    -0.08600
C1980       C  0.71132001  0.39288401  0.24094640    -0.06000
C1981       C  0.71889693  0.40794522  0.28327162    -0.00100
C1982       C  0.70593245  0.42325938  0.29595747    -0.08500
C1983       C  0.71389410  0.44109954  0.33988986     0.61900
H1984       H  0.67542612  0.43385926  0.27489750     0.12500
H1985       H  0.72116532  0.38123305  0.23156264     0.12600
C1986       C  0.68364286  0.37553618  0.16584507     0.62100
F1987       F  0.70178552  0.45724224  0.34104366    -0.23100
F1988       F  0.74168905  0.45808560  0.34028709    -0.20400
F1989       F  0.70588101  0.42513500  0.38047222    -0.20100
F1990       F  0.69165160  0.39246148  0.12648375    -0.20100
F1991       F  0.65587466  0.35850628  0.16464769    -0.20500
F1992       F  0.69590934  0.35956899  0.16315203    -0.23100
C1993       C  0.78982612  0.48945005  0.50035404    -0.06000
C1994       C  0.80229719  0.49415547  0.45525101     0.00000
C1995       C  0.81772699  0.01831114  0.44814339    -0.08600
C1996       C  0.83071925  0.03737032  0.48407565    -0.06000
C1997       C  0.82210956  0.03132473  0.53157312    -0.00100
C1998       C  0.79756366  0.00775090  0.54264259    -0.08500
C1999       C  0.78735637  0.50448863  0.58461535     0.61900
H2000       H  0.77304729  0.46947572  0.50857572     0.12500
H2001       H  0.84845727  0.05661557  0.47562141     0.12600
C2002       C  0.82593395  0.02547280  0.39650404     0.62100
F2003       F  0.76344539  0.47994492  0.58680689    -0.23100
F2004       F  0.77891386  0.02500317  0.59901989    -0.20400
F2005       F  0.80203519  0.00496569  0.62606995    -0.20100
F2006       F  0.80311651  0.01916731  0.36988340    -0.20100
F2007       F  0.83802957  0.01113135  0.37917532    -0.20500
F2008       F  0.84397200  0.05283196  0.39093329    -0.23100
C2009       C  0.69458454  0.28945504  0.45747566    -0.06000
C2010       C  0.67293253  0.27862772  0.42569014     0.00000
C2011       C  0.67737678  0.28817909  0.37788873    -0.08600
C2012       C  0.70227004  0.31107642  0.36578677    -0.06000
C2013       C  0.72277017  0.32407992  0.39949087    -0.00100
C2014       C  0.71965270  0.31189759  0.44498494    -0.08500
C2015       C  0.74291325  0.32184461  0.47955420     0.61900
H2016       H  0.69126260  0.28117165  0.49318595     0.12500
H2017       H  0.70508414  0.32012432  0.33076272     0.12600
C2018       C  0.65617155  0.27435137  0.33961661     0.62100
F2019       F  0.76496382  0.32275790  0.45639418    -0.23100
F2020       F  0.73672375  0.30466822  0.51840158    -0.20400
F2021       F  0.74937231  0.34724343  0.49633964    -0.20100
F2022       F  0.63509136  0.27983707  0.34585184    -0.20100
F2023       F  0.64630445  0.24662254  0.34161655    -0.20500
F2024       F  0.66696298  0.28320259  0.29456488    -0.23100
C2025       C  0.58044487  0.17513693  0.28221659    -0.06000
C2026       C  0.57592053  0.19581453  0.29978882     0.00000
C2027       C  0.57276833  0.21340483  0.26762987    -0.08600
C2028       C  0.57761229  0.21182578  0.21945754    -0.06000
C2029       C  0.58367258  0.19230332  0.20207306    -0.00100
C2030       C  0.58429492  0.17295829  0.23329577    -0.08500
C2031       C  0.59031804  0.15115152  0.21543809     0.61900
H2032       H  0.58226821  0.16156667  0.30732618     0.12500
H2033       H  0.57693777  0.22632447  0.19487508     0.12600
C2034       C  0.56443041  0.23419879  0.28138807     0.62100
F2035       F  0.59053566  0.13486959  0.25208838    -0.23100
F2036       F  0.61542335  0.16299663  0.19324924    -0.20400
F2037       F  0.57064203  0.13474950  0.18343945    -0.20100
F2038       F  0.58670782  0.25990938  0.27815990    -0.20100
F2039       F  0.55367118  0.23036306  0.32646120    -0.20500
F2040       F  0.54464487  0.23237876  0.25058526    -0.23100
C2041       C  0.52408613  0.17747039  0.61379131    -0.06000
C2042       C  0.53541156  0.16166803  0.59810164     0.00000
C2043       C  0.52223673  0.13374130  0.60996797    -0.08600
C2044       C  0.99400776  0.11636610  0.62800412    -0.06000
C2045       C  0.98247771  0.13202895  0.64432555    -0.00100
C2046       C  0.49798494  0.16567269  0.63477438    -0.08500
C2047       C  0.48604915  0.18399968  0.64592731     0.61900
H2048       H  0.53470084  0.19888569  0.60491610     0.12500
H2049       H  0.98200048  0.09441832  0.62891991     0.12600
C2050       C  0.53471601  0.11608634  0.59803656     0.62100
F2051       F  0.50451608  0.21113674  0.63804110    -0.23100
F2052       F  0.98120443  0.17205601  0.71282489    -0.20400
F2053       F  0.96981020  0.17938423  0.63933101    -0.20100
F2054       F  0.56257950  0.13053026  0.60348877    -0.20100
F2055       F  0.52873908  0.10719596  0.55163568    -0.20500
F2056       F  0.02517259  0.08991515  0.62715786    -0.23100
C2057       C  0.81748798  0.23163248  0.87835899    -0.06000
C2058       C  0.82065010  0.23687438  0.92771704     0.00000
C2059       C  0.79772836  0.22231531  0.95781446    -0.08600
C2060       C  0.77462377  0.19979540  0.93875019    -0.06000
C2061       C  0.77333643  0.19233600  0.89061391    -0.00100
C2062       C  0.79398510  0.21002076  0.85906247    -0.08500
C2063       C  0.79210408  0.20528302  0.80573667     0.61900
H2064       H  0.83443425  0.24344241  0.85483226     0.12500
H2065       H  0.75800330  0.18665364  0.96211457     0.12600
C2066       C  0.79765410  0.22958054  0.00973618     0.62100
F2067       F  0.81410277  0.22565799  0.78158787    -0.23100
F2068       F  0.76893704  0.20478062  0.78886965    -0.20400
F2069       F  0.79115728  0.18089198  0.79569041    -0.20100
F2070       F  0.80434449  0.25655799  0.01324141    -0.20100
F2071       F  0.81608895  0.22528167  0.03497319    -0.20500
F2072       F  0.77238938  0.21413491  0.03068092    -0.23100
C2073       C  0.78541160  0.12087217  0.72892413    -0.06000
C2074       C  0.77949650  0.10757197  0.77321629     0.00000
C2075       C  0.79428626  0.09445124  0.78763249    -0.08600
C2076       C  0.81487927  0.09595083  0.75756168    -0.06000
C2077       C  0.82131805  0.10988256  0.71387507    -0.00100
C2078       C  0.80599905  0.12231324  0.69872266    -0.08500
C2079       C  0.81126811  0.13749606  0.65162905     0.61900
H2080       H  0.77395874  0.13070566  0.71837629     0.12500
H2081       H  0.82640580  0.08622357  0.76833728     0.12600
C2082       C  0.78863394  0.07869851  0.83414551     0.62100
F2083       F  0.79543783  0.14980908  0.64670176    -0.23100
F2084       F  0.80527912  0.11964187  0.61425928    -0.20400
F2085       F  0.83806470  0.15760748  0.64842504    -0.20100
F2086       F  0.76122354  0.06041134  0.83842799    -0.20100
F2087       F  0.79697507  0.09646006  0.87206298    -0.20500
F2088       F  0.80234626  0.06407792  0.83662969    -0.23100
C2089       C  0.62009010  0.12465701  0.87481007    -0.06000
C2090       C  0.64838517  0.13903661  0.86733282     0.00000
C2091       C  0.66299075  0.16682717  0.88139291    -0.08600
C2092       C  0.64892281  0.17832908  0.90495835    -0.06000
C2093       C  0.62119619  0.16310417  0.91580474    -0.00100
C2094       C  0.60631989  0.13612286  0.89932119    -0.08500
C2095       C  0.57612287  0.11931806  0.90910377     0.61900
H2096       H  0.60898039  0.10366078  0.86374299     0.12500
H2097       H  0.65990752  0.19886602  0.91841638     0.12600
C2098       C  0.69357625  0.18386667  0.87537667     0.62100
F2099       F  0.56498082  0.09412040  0.88764902    -0.23100
F2100       F  0.56311832  0.13277788  0.89165875    -0.20400
F2101       F  0.57142853  0.11535659  0.95752438    -0.20100
F2102       F  0.70050212  0.18586811  0.82772261    -0.20100
F2103       F  0.70614155  0.17206456  0.90030564    -0.20500
F2104       F  0.70343440  0.20997239  0.89239246    -0.23100
C2105       C  0.68059991  0.48661266  0.99287465    -0.06000
C2106       C  0.68118177  0.49487557  0.04041109     0.00000
C2107       C  0.69321677  0.01826191  0.04860992    -0.08600
C2108       C  0.70378960  0.03655510  0.01020214    -0.06000
C2109       C  0.69882316  0.02757374  0.96285955    -0.00100
C2110       C  0.68553491  0.99968978  0.95287406    -0.08500
C2111       C  0.67975614  0.98965536  0.90200508     0.61900
H2112       H  0.67081901  0.46517368  0.98501449     0.12500
H2113       H  0.71353283  0.05817991  0.01682801     0.12600
C2114       C  0.69387537  0.53300902  0.10104054     0.62100
F2115       F  0.66707489  0.96166173  0.89975163    -0.23100
F2116       F  0.70387035  0.00017207  0.87669260    -0.20400
F2117       F  0.66302363  0.99794618  0.88075280    -0.20100
F2118       F  0.70364999  0.52083960  0.13196973    -0.20100
F2119       F  0.66804660  0.52694334  0.11513499    -0.20500
F2120       F  0.71498174  0.05632234  0.10110533    -0.23100
C2121       C  0.61857611  0.01563556  0.28140433    -0.06000
C2122       C  0.64507544  0.02611700  0.29928510     0.00000
C2123       C  0.65711014  0.00910828  0.29849776    -0.08600
C2124       C  0.64727068  0.48771404  0.26813008    -0.06000
C2125       C  0.62163599  0.47872448  0.24787793    -0.00100
C2126       C  0.60839223  0.49419671  0.25497011    -0.08500
C2127       C  0.57983475  0.48456619  0.23728861     0.61900
H2128       H  0.60890201  0.02811208  0.28279947     0.12500
H2129       H  0.65698781  0.47549352  0.26279488     0.12600
C2130       C  0.68535150  0.01853338  0.31743505     0.62100
F2131       F  0.56864656  0.49923331  0.25732037    -0.23100
F2132       F  0.56333120  0.45753056  0.24917695    -0.20400
F2133       F  0.58022083  0.48768488  0.18851404    -0.20100
F2134       F  0.68611082  0.02421827  0.36535001    -0.20100
F2135       F  0.70374215  0.04148040  0.29305302    -0.20500
F2136       F  0.69327167  0.99906735  0.31197059    -0.23100
C2137       C  0.71799402  0.12587606  0.05398259    -0.06000
C2138       C  0.69370653  0.10647459  0.03339558     0.00000
C2139       C  0.67104332  0.08984936  0.06249469    -0.08600
C2140       C  0.67408685  0.09265810  0.11204061    -0.06000
C2141       C  0.69896892  0.11113081  0.13266862    -0.00100
C2142       C  0.72137530  0.12848882  0.10310315    -0.08500
C2143       C  0.74881362  0.15004270  0.12210821     0.61900
H2144       H  0.73486268  0.13855701  0.03069883     0.12500
H2145       H  0.65710686  0.08010788  0.13518598     0.12600
C2146       C  0.64414707  0.06891118  0.04165924     0.62100
F2147       F  0.76130962  0.13790256  0.14608302    -0.23100
F2148       F  0.76630405  0.16569151  0.08605322    -0.20400
F2149       F  0.74556860  0.16745734  0.15234151    -0.20100
F2150       F  0.64779823  0.05055622  0.01449802    -0.20100
F2151       F  0.63382611  0.08177112  0.01355723    -0.20500
F2152       F  0.62510255  0.05450937  0.07664807    -0.23100
C2153       C  0.67473690  0.21149982  0.17598135    -0.06000
C2154       C  0.67377026  0.20187098  0.12948609     0.00000
C2155       C  0.68407768  0.18425124  0.11976206    -0.08600
C2156       C  0.69287292  0.17487511  0.15795935    -0.06000
C2157       C  0.69189576  0.18267068  0.20507992    -0.00100
C2158       C  0.68332418  0.20176794  0.21447838    -0.08500
C2159       C  0.68279121  0.21130661  0.26456611     0.61900
H2160       H  0.66635750  0.22480348  0.18257414     0.12500
H2161       H  0.69923649  0.16011786  0.15095860     0.12600
C2162       C  0.68563400  0.17431960  0.07031731     0.62100
F2163       F  0.67519937  0.23116093  0.26530844    -0.23100
F2164       F  0.70835681  0.22201014  0.28411715    -0.20400
F2165       F  0.66450530  0.18975633  0.29223070    -0.20100
F2166       F  0.67851318  0.18662894  0.03495034    -0.20100
F2167       F  0.66860253  0.14657036  0.06801888    -0.20500
F2168       F  0.71194908  0.17990675  0.06131698    -0.23100
C2169       C  0.66471922  0.14887833  0.44861036    -0.06000
C2170       C  0.64973740  0.12472083  0.42299267     0.00000
C2171       C  0.62108155  0.11195219  0.42428591    -0.08600
C2172       C  0.60864307  0.12597706  0.44388358    -0.06000
C2173       C  0.62365405  0.15176250  0.46472650    -0.00100
C2174       C  0.65211351  0.16250741  0.47033468    -0.08500
C2175       C  0.66939385  0.18873896  0.49682125     0.61900
H2176       H  0.68662347  0.15812749  0.44830155     0.12500
H2177       H  0.58677324  0.11686907  0.44152825     0.12600
C2178       C  0.60286482  0.08401426  0.40376944     0.62100
F2179       F  0.69639366  0.19527929  0.49803988    -0.23100
F2180       F  0.66021564  0.18608868  0.54326667    -0.20400
F2181       F  0.66799997  0.20987830  0.47483009    -0.20100
F2182       F  0.61661429  0.06986674  0.39493744    -0.20100
F2183       F  0.59165986  0.08663172  0.36187975    -0.20500
F2184       F  0.58216399  0.06879830  0.43570574    -0.23100
C2185       C  0.57276211  0.28258886  0.57920112    -0.06000
C2186       C  0.59479966  0.28730453  0.55007896     0.00000
C2187       C  0.61644724  0.31410589  0.54351875    -0.08600
C2188       C  0.61621410  0.33525240  0.56935999    -0.06000
C2189       C  0.59498355  0.33034294  0.60084934    -0.00100
C2190       C  0.57237468  0.30377100  0.60475154    -0.08500
C2191       C  0.54785631  0.29775113  0.63531274     0.61900
H2192       H  0.55598203  0.26204753  0.58221569     0.12500
H2193       H  0.63303777  0.35574128  0.56616652     0.12600
C2194       C  0.63941013  0.32034726  0.50875524     0.62100
F2195       F  0.52630148  0.27210343  0.62671190    -0.23100
F2196       F  0.53934171  0.31641552  0.62590111    -0.20400
F2197       F  0.55458246  0.29907492  0.68267445    -0.20100
F2198       F  0.62899648  0.31215803  0.46368582    -0.20100
F2199       F  0.65301105  0.30675589  0.52235182    -0.20500
F2200       F  0.65795140  0.34782900  0.50672370    -0.23100
C2201       C  0.53415986  0.35514745  0.85069022    -0.06000
C2202       C  0.52752142  0.33998735  0.80849549     0.00000
C2203       C  0.00427724  0.30435005  0.80467338    -0.08600
C2204       C  0.98644540  0.29459635  0.84416029    -0.06000
C2205       C  0.99111215  0.31059547  0.88512426    -0.00100
C2206       C  0.51844389  0.34517759  0.89179281    -0.08500
C2207       C  0.52780552  0.36234087  0.93630602     0.61900
H2208       H  0.55134824  0.37545846  0.85129022     0.12500
H2209       H  0.96742887  0.27570030  0.84138270     0.12600
C2210       C  0.99909777  0.28684393  0.76100714     0.62100
F2211       F  0.55370866  0.36746057  0.94721853    -0.23100
F2212       F  0.00751641  0.33748146  0.97349209    -0.20400
F2213       F  0.52839139  0.38677909  0.92838717    -0.20100
F2214       F  0.01983836  0.28076260  0.75596780    -0.20100
F2215       F  0.49809149  0.30434770  0.72688228    -0.20500
F2216       F  0.97487141  0.26265598  0.76467463    -0.23100
C2217       C  0.65434625  0.00092670  0.71026481    -0.06000
C2218       C  0.63178931  0.49330759  0.69833229     0.00000
C2219       C  0.61904152  0.50948254  0.70465253    -0.08600
C2220       C  0.62632517  0.02735693  0.74007315    -0.06000
C2221       C  0.65399289  0.03897161  0.75048083    -0.00100
C2222       C  0.66845321  0.02600671  0.73403037    -0.08500
C2223       C  0.69845745  0.03790387  0.74417209     0.61900
H2224       H  0.66520813  0.99042598  0.69987357     0.12500
H2225       H  0.61556826  0.03748711  0.75317681     0.12600
C2226       C  0.59094168  0.50095808  0.68571689     0.62100
F2227       F  0.70902879  0.02269376  0.72410028    -0.23100
F2228       F  0.70248630  0.03882640  0.79274388    -0.20400
F2229       F  0.71251577  0.06386973  0.72553719    -0.20100
F2230       F  0.57154237  0.48113346  0.71486061    -0.20100
F2231       F  0.58851127  0.49112373  0.63998193    -0.20500
F2232       F  0.58595828  0.52260355  0.68410595    -0.23100
C2233       C  0.62318666  0.41044099  0.88046637    -0.06000
C2234       C  0.60768364  0.42079344  0.85934146     0.00000
C2235       C  0.59671695  0.43364093  0.88799311    -0.08600
C2236       C  0.59902985  0.43268177  0.93751618    -0.06000
C2237       C  0.61231001  0.41992073  0.95896262    -0.00100
C2238       C  0.62582828  0.40965601  0.92973986    -0.08500
C2239       C  0.64327344  0.39814305  0.94917837     0.61900
H2240       H  0.63249344  0.40184448  0.85765413     0.12500
H2241       H  0.58975394  0.44141209  0.96002347     0.12600
C2242       C  0.58213842  0.44770799  0.86709242     0.62100
F2243       F  0.65617223  0.39190442  0.91333114    -0.23100
F2244       F  0.62738130  0.37446502  0.97431963    -0.20400
F2245       F  0.66318635  0.41692342  0.97837467    -0.20100
F2246       F  0.57429815  0.45986696  0.90179112    -0.20100
F2247       F  0.55910001  0.42909411  0.84354546    -0.20500
F2248       F  0.59926883  0.46782127  0.83575983    -0.23100
C2249       C  0.92528292  0.20203962  0.56043276    -0.06000
C2250       C  0.91617840  0.19305083  0.60716207     0.00000
C2251       C  0.90924984  0.20899009  0.63666408    -0.08600
C2252       C  0.90617829  0.22985953  0.61538613    -0.06000
C2253       C  0.91099649  0.23579785  0.56649975    -0.00100
C2254       C  0.92274377  0.22324817  0.53929111    -0.08500
C2255       C  0.93054698  0.23076151  0.48750078     0.61900
H2256       H  0.93237973  0.19083102  0.53936364     0.12500
H2257       H  0.89865151  0.24086063  0.63635987     0.12600
C2258       C  0.90455286  0.20370068  0.68976420     0.62100
F2259       F  0.94143156  0.21592470  0.46745436    -0.23100
F2260       F  0.94987746  0.25784277  0.48387247    -0.20400
F2261       F  0.90793735  0.22603730  0.46160529    -0.20100
F2262       F  0.92727829  0.20467632  0.70983430    -0.20100
F2263       F  0.88235370  0.17851545  0.69853790    -0.20500
F2264       F  0.90002218  0.22295916  0.71200223    -0.23100
C2265       C  0.82420053  0.22615539  0.40141458    -0.06000
C2266       C  0.81787815  0.23024103  0.44810415     0.00000
C2267       C  0.79086901  0.21311469  0.46551934    -0.12200
C2268       C  0.77189612  0.19249462  0.43580427    -0.06000
C2269       C  0.77856096  0.18846578  0.38964975    -0.00100
C2270       C  0.80524105  0.20555900  0.37199033    -0.08500
C2271       C  0.81428022  0.20150151  0.32303112     0.61900
H2272       H  0.84448467  0.23922604  0.38785674     0.12500
H2273       H  0.75138504  0.17923392  0.44830705     0.12600
C2274       C  0.78164357  0.21590192  0.51510528     0.62100
F2275       F  0.84195414  0.21774182  0.31603648    -0.23100
F2276       F  0.80130545  0.20799375  0.28808406    -0.20400
F2277       F  0.80824572  0.17478653  0.31795573    -0.20100
F2278       F  0.78396686  0.24130272  0.52005762    -0.20100
F2279       F  0.79719206  0.21218139  0.54893802    -0.20500
F2280       F  0.75479995  0.19685501  0.52394395    -0.23100
C2281       C  0.99419731  0.38769772  0.54791600    -0.06000
C2282       C  0.98327250  0.36070936  0.53206167     0.00000
C2283       C  0.99891361  0.34745253  0.53833139    -0.08600
C2284       C  0.52599088  0.36643062  0.56107407    -0.06000
C2285       C  0.53458413  0.39193688  0.58141337    -0.00100
C2286       C  0.51984247  0.40562157  0.57244169    -0.08500
C2287       C  0.53006384  0.43435435  0.58982454     0.61900
H2288       H  0.98236764  0.39785224  0.54295253     0.12500
H2289       H  0.53787731  0.35651550  0.56788958     0.12600
C2290       C  0.98824334  0.31815849  0.52418952     0.62100
F2291       F  0.01166196  0.43936700  0.58062444    -0.23100
F2292       F  0.55648216  0.45058923  0.57428344    -0.20400
F2293       F  0.52932562  0.43466118  0.63895243    -0.20100
F2294       F  0.98277413  0.31523992  0.47606425    -0.20100
F2295       F  0.96490925  0.30193264  0.54988553    -0.20500
F2296       F  0.51122878  0.31625847  0.52578133    -0.23100
C2297       C  0.93254693  0.32022448  0.76553271    -0.06000
C2298       C  0.91137643  0.31689977  0.79589773     0.00000
C2299       C  0.88682645  0.31359538  0.77742900    -0.08600
C2300       C  0.88325625  0.31117815  0.72815982    -0.06000
C2301       C  0.90394713  0.31316589  0.69796016    -0.00100
C2302       C  0.92943133  0.31921922  0.71609526    -0.08500
C2303       C  0.95289299  0.32449738  0.68331564     0.61900
H2304       H  0.95130143  0.32312001  0.78093111     0.12500
H2305       H  0.86432071  0.30774680  0.71274005     0.12600
C2306       C  0.86476083  0.31267116  0.80963540     0.62100
F2307       F  0.97644476  0.33195681  0.70842502    -0.23100
F2308       F  0.95780311  0.34542057  0.65220235    -0.20400
F2309       F  0.94665024  0.30134804  0.65761854    -0.20100
F2310       F  0.87439692  0.33727661  0.83257231    -0.20100
F2311       F  0.85724412  0.29239560  0.84326792    -0.20500
F2312       F  0.84187094  0.30775941  0.78443961    -0.23100
C2313       C  0.83793742  0.35083009  0.37796634    -0.06000
C2314       C  0.85308328  0.37873818  0.36751699     0.00000
C2315       C  0.88170867  0.39219793  0.37444228    -0.08600
C2316       C  0.89346523  0.37789791  0.39592739    -0.06000
C2317       C  0.87781064  0.35083052  0.41063268    -0.00100
C2318       C  0.84964603  0.33679444  0.40058243    -0.08500
C2319       C  0.83154536  0.30786185  0.41780929     0.61900
H2320       H  0.81622597  0.34062620  0.37253053     0.12500
H2321       H  0.91483588  0.38843999  0.40466324     0.12600
C2322       C  0.89992579  0.42202482  0.36266803     0.62100
F2323       F  0.80473074  0.29802256  0.40509867    -0.23100
F2324       F  0.83257106  0.30686006  0.46686463    -0.20400
F2325       F  0.84026124  0.29104819  0.39821307    -0.20100
F2326       F  0.89782222  0.43777091  0.39823238    -0.20100
F2327       F  0.89268689  0.42840033  0.31959407    -0.20500
F2328       F  0.92685302  0.42843164  0.35912905    -0.23100
C2329       C  0.69036509  0.42526689  0.77156556    -0.06000
C2330       C  0.68441186  0.41822378  0.72334262     0.00000
C2331       C  0.70272630  0.41394790  0.69526494    -0.08600
C2332       C  0.72422619  0.41282375  0.71816465    -0.06000
C2333       C  0.72813352  0.41646995  0.76765763    -0.00100
C2334       C  0.71227782  0.42478896  0.79421854    -0.08500
C2335       C  0.71738070  0.43133914  0.84664042     0.61900
H2336       H  0.67643676  0.42918787  0.79225032     0.12500
H2337       H  0.73718925  0.40733125  0.69802279     0.12600
C2338       C  0.69867415  0.40914992  0.64212134     0.62100
F2339       F  0.69971993  0.43920172  0.86570602    -0.23100
F2340       F  0.74350917  0.45245101  0.85270074    -0.20400
F2341       F  0.71416768  0.40879138  0.87146448    -0.20100
F2342       F  0.69942144  0.43155599  0.62069005    -0.20100
F2343       F  0.67389243  0.38645818  0.63329790    -0.20500
F2344       F  0.71872421  0.40517085  0.62150462    -0.23100
C2345       C  0.68688242  0.27902489  0.91622777    -0.06000
C2346       C  0.67768722  0.28738248  0.95570888     0.00000
C2347       C  0.69155001  0.31519196  0.96878534    -0.08600
C2348       C  0.71275453  0.33385120  0.93934546    -0.06000
C2349       C  0.72139804  0.32577930  0.89847888    -0.00100
C2350       C  0.70902402  0.29744532  0.88810203    -0.08500
C2351       C  0.71888559  0.28607685  0.84833785     0.61900
H2352       H  0.67655810  0.25759300  0.90779813     0.12500
H2353       H  0.72265414  0.35519043  0.94813314     0.12600
C2354       C  0.68390637  0.32549603  0.01299643     0.62100
F2355       F  0.70660484  0.25804568  0.85031231    -0.23100
F2356       F  0.74654606  0.29604078  0.85210917    -0.20400
F2357       F  0.71298292  0.29301688  0.80456837    -0.20100
F2358       F  0.68950662  0.31509443  0.05323521    -0.20100
F2359       F  0.65662739  0.31768539  0.01232949    -0.20500
F2360       F  0.69830794  0.35353012  0.01613907    -0.23100
C2361       C  0.83978394  0.35486111  0.69946261    -0.06000
C2362       C  0.81616441  0.33506107  0.72183080     0.00000
C2363       C  0.80063132  0.30939962  0.70064820    -0.08600
C2364       C  0.80984703  0.30437664  0.65743039    -0.06000
C2365       C  0.83314593  0.32461189  0.63403334    -0.00100
C2366       C  0.84787943  0.35083751  0.65465289    -0.08500
C2367       C  0.87177479  0.37496458  0.63046952     0.61900
H2368       H  0.85100637  0.37452363  0.71616633     0.12500
H2369       H  0.79895477  0.28442904  0.64156958     0.12600
C2370       C  0.77497995  0.28734512  0.72418506     0.62100
F2371       F  0.88016332  0.39886575  0.65537000    -0.23100
F2372       F  0.86455391  0.37898126  0.58578462    -0.20400
F2373       F  0.89367030  0.37074458  0.62672556    -0.20100
F2374       F  0.75449534  0.29393801  0.72185100    -0.20100
F2375       F  0.78002666  0.28451411  0.77133336    -0.20500
F2376       F  0.76586512  0.26250614  0.70222082    -0.23100
C2377       C  0.87320725  0.40243758  0.93812901    -0.06000
C2378       C  0.84516763  0.38716630  0.93010837     0.00000
C2379       C  0.83106889  0.35992076  0.94685276    -0.08600
C2380       C  0.84599070  0.34815397  0.96620205    -0.06000
C2381       C  0.87448380  0.36265635  0.96949975    -0.00100
C2382       C  0.88802454  0.39094997  0.95872053    -0.08500
C2383       C  0.91819523  0.40912572  0.96682955     0.61900
H2384       H  0.88385906  0.42326773  0.92555309     0.12500
H2385       H  0.83555829  0.32681450  0.97560741     0.12600
C2386       C  0.80061064  0.34268085  0.94101823     0.62100
F2387       F  0.92479992  0.43613505  0.96951773    -0.23100
F2388       F  0.93276547  0.40640771  0.92963287    -0.20400
F2389       F  0.92583154  0.40241388  0.00920760    -0.20100
F2390       F  0.79414907  0.34028525  0.89329908    -0.20100
F2391       F  0.78773180  0.35471978  0.96450095    -0.20500
F2392       F  0.79081718  0.31682142  0.95962046    -0.23100
C2393       C  0.87464806  0.99808490  0.78743606    -0.06000
C2394       C  0.85234116  0.48762697  0.79746327     0.00000
C2395       C  0.83986478  0.50425037  0.79649883    -0.08600
C2396       C  0.84742667  0.02686094  0.76887813    -0.06000
C2397       C  0.87398249  0.03690661  0.75154169    -0.00100
C2398       C  0.88815982  0.02284935  0.76237503    -0.08500
C2399       C  0.91714950  0.03347955  0.74545597     0.61900
H2400       H  0.88866420  0.48612317  0.78086148     0.12500
H2401       H  0.83692800  0.03794627  0.75999652     0.12600
C2402       C  0.81210990  0.49492364  0.81828578     0.62100
F2403       F  0.92816037  0.01815574  0.76312394    -0.23100
F2404       F  0.93300949  0.05993828  0.76054645    -0.20400
F2405       F  0.91797321  0.03281800  0.69635619    -0.20100
F2406       F  0.81238223  0.48929403  0.86609369    -0.20100
F2407       F  0.79317753  0.47199968  0.79509051    -0.20500
F2408       F  0.80421352  0.51446801  0.81444739    -0.23100
C2409       C  0.81071908  0.38761388  0.60744079    -0.06000
C2410       C  0.80640287  0.40432518  0.63923018     0.00000
C2411       C  0.80526271  0.42725963  0.62216308    -0.08600
C2412       C  0.80588295  0.43127206  0.57296880    -0.06000
C2413       C  0.80919925  0.41408657  0.54107985    -0.00100
C2414       C  0.81280996  0.39258802  0.55812815    -0.08500
C2415       C  0.81905922  0.37535768  0.52441046     0.61900
H2416       H  0.81219314  0.37054190  0.62147547     0.12500
H2417       H  0.80371514  0.44805691  0.55919908     0.12600
C2418       C  0.80385252  0.44832074  0.65375417     0.62100
F2419       F  0.81571455  0.35195450  0.54629286    -0.23100
F2420       F  0.84551195  0.39034741  0.50825028    -0.20400
F2421       F  0.80227108  0.36772767  0.48555092    -0.20100
F2422       F  0.80456479  0.44370453  0.70184095    -0.20100
F2423       F  0.78015571  0.44886401  0.64453059    -0.20500
F2424       F  0.82580261  0.47348015  0.64337882    -0.23100
C2425       C  0.79839990  0.08667236  0.22204545    -0.06000
C2426       C  0.82081591  0.09549637  0.25187012     0.00000
C2427       C  0.81745828  0.09889186  0.30119900    -0.08600
C2428       C  0.79391224  0.09921998  0.31645221    -0.06000
C2429       C  0.77301472  0.09417714  0.28478994    -0.00100
C2430       C  0.77431948  0.08562122  0.23787021    -0.08500
C2431       C  0.75127017  0.07550263  0.20274104     0.61900
H2432       H  0.80024592  0.08237825  0.18505711     0.12500
H2433       H  0.79257334  0.10512388  0.35261842     0.12600
C2434       C  0.83869062  0.10330598  0.33802762     0.62100
F2435       F  0.74372638  0.04898537  0.19123877    -0.23100
F2436       F  0.75995506  0.09112115  0.16183523    -0.20400
F2437       F  0.72869709  0.07602359  0.22024706    -0.20100
F2438       F  0.85595488  0.13079339  0.34406887    -0.20100
F2439       F  0.85350751  0.09091863  0.32445042    -0.20500
F2440       F  0.82643277  0.09212877  0.38128725    -0.23100
C2441       C  0.88220572  0.17752552  0.07400623    -0.06000
C2442       C  0.90068969  0.18421705  0.11157258     0.00000
C2443       C  0.91961445  0.21216519  0.11975041    -0.08600
C2444       C  0.91848552  0.23208952  0.09115540    -0.06000
C2445       C  0.89986347  0.22531866  0.05418388    -0.00100
C2446       C  0.88143974  0.19754629  0.04509262    -0.08500
C2447       C  0.86034138  0.18907684  0.00612255     0.61900
H2448       H  0.86792203  0.15630418  0.06779846     0.12500
H2449       H  0.93247529  0.25348498  0.09738617     0.12600
C2450       C  0.94121664  0.22130980  0.15798485     0.62100
F2451       F  0.84212524  0.16151018  0.00746423    -0.23100
F2452       F  0.87287392  0.19518230  0.96199763    -0.20400
F2453       F  0.84579165  0.20264138  0.01148800    -0.20100
F2454       F  0.95476092  0.20655526  0.15515764    -0.20100
F2455       F  0.92925967  0.21781013  0.20236635    -0.20500
F2456       F  0.96040289  0.24843905  0.15310383    -0.23100
C2457       C  0.96839123  0.14624738  0.05402694    -0.06000
C2458       C  0.95941180  0.11974010  0.07018740     0.00000
C2459       C  0.97451357  0.10670094  0.05864905    -0.08600
C2460       C  0.50119904  0.12404590  0.03131440    -0.06000
C2461       C  0.51328443  0.15225479  0.02332682    -0.00100
C2462       C  0.49731906  0.16511618  0.03146149    -0.08500
C2463       C  0.50844860  0.19538024  0.02378526     0.61900
H2464       H  0.95631809  0.15567579  0.06330397     0.12500
H2465       H  0.51277558  0.11381779  0.02403799     0.12600
C2466       C  0.96523231  0.07780000  0.07465443     0.62100
F2467       F  0.98419560  0.19872697  0.03178147    -0.23100
F2468       F  0.51604522  0.20202189  0.97671360    -0.20400
F2469       F  0.53056023  0.20982859  0.05285782    -0.20100
F2470       F  0.93767123  0.06174992  0.06724291    -0.20100
F2471       F  0.97058903  0.07749045  0.12248662    -0.20500
F2472       F  0.46616112  0.06664536  0.02017669    -0.23100
C2473       C  0.99582810  0.19960620  0.37090825    -0.06000
C2474       C  0.50117708  0.18347500  0.39201177     0.00000
C2475       C  0.49034743  0.15653730  0.37529257    -0.08600
C2476       C  0.48056422  0.15092605  0.32871598    -0.06000
C2477       C  0.97717223  0.16856044  0.30429870    -0.00100
C2478       C  0.98392881  0.19388295  0.32535164    -0.08500
C2479       C  0.98020124  0.21536497  0.29922872     0.61900
H2480       H  0.00327435  0.21963552  0.38586329     0.12500
H2481       H  0.47446307  0.13101554  0.31440443     0.12600
C2482       C  0.48949083  0.13370747  0.40536950     0.62100
F2483       F  0.99138346  0.23963444  0.32379025    -0.23100
F2484       F  0.95286212  0.20653029  0.29366150    -0.20400
F2485       F  0.99264014  0.22043151  0.25503720    -0.20100
F2486       F  0.47968908  0.13410553  0.45038912    -0.20100
F2487       F  0.51501033  0.13633637  0.40866351    -0.20500
F2488       F  0.47255870  0.10851930  0.38603438    -0.23100
C2489       C  0.84076216  0.00864170  0.21057115    -0.06000
C2490       C  0.86864347  0.01970919  0.20097430     0.00000
C2491       C  0.88155811  0.00452278  0.21424804    -0.08600
C2492       C  0.87074606  0.48373067  0.23681159    -0.06000
C2493       C  0.84393465  0.47413383  0.25206549    -0.00100
C2494       C  0.83035847  0.48855384  0.23908277    -0.08500
C2495       C  0.80098926  0.47817486  0.25363442     0.61900
H2496       H  0.83082378  0.01995318  0.19973678     0.12500
H2497       H  0.88088113  0.47255378  0.24744055     0.12600
C2498       C  0.91049509  0.01257055  0.20039829     0.62100
F2499       F  0.79161946  0.49549872  0.23916568    -0.23100
F2500       F  0.79825029  0.47551155  0.30253122    -0.20400
F2501       F  0.78493243  0.45311714  0.23315051    -0.20100
F2502       F  0.92743093  0.02531473  0.23832899    -0.20100
F2503       F  0.91928474  0.02960369  0.16116160    -0.20500
F2504       F  0.91223808  0.98967321  0.18883794    -0.23100
C2505       C  0.92263033  0.12788317  0.39602631    -0.06000
C2506       C  0.91583816  0.10475868  0.36847492     0.00000
C2507       C  0.90950393  0.07986777  0.39114625    -0.08600
C2508       C  0.90773268  0.07871995  0.44116469    -0.06000
C2509       C  0.91302399  0.10175120  0.46777388    -0.00100
C2510       C  0.92218676  0.12693987  0.44528001    -0.08500
C2511       C  0.92955201  0.15265168  0.47241301     0.61900
H2512       H  0.92841665  0.14716138  0.37880770     0.12500
H2513       H  0.90097360  0.05964191  0.45974465     0.12600
C2514       C  0.90394082  0.05468568  0.36327442     0.62100
F2515       F  0.94917784  0.17496927  0.44798035    -0.23100
F2516       F  0.93998304  0.15227783  0.51662325    -0.20400
F2517       F  0.90662792  0.15528561  0.47768413    -0.20100
F2518       F  0.88375011  0.04874477  0.33032309    -0.20100
F2519       F  0.89569015  0.03227667  0.39264742    -0.20500
F2520       F  0.92732044  0.05903369  0.33991640    -0.23100
Fe2521     Fe  0.93820860  0.60819733  0.21379680     1.65800
Fe2522     Fe  0.88634129  0.60367542  0.14439086     1.73200
Fe2523     Fe  0.91032007  0.64873682  0.23668616     1.54400
O2524       O  0.91283886  0.63138209  0.29901632    -0.81900
O2525       O  0.89143150  0.64062060  0.11909253    -0.80200
O2526       O  0.92753475  0.60203932  0.28466827    -0.84400
O2527       O  0.96923128  0.64670755  0.22848593    -0.79200
O2528       O  0.86921970  0.62715332  0.24404089    -0.81000
O2529       O  0.91831024  0.60971945  0.09813317    -0.83700
C2530       C  0.96743240  0.66539320  0.25009051     0.97000
C2531       C  0.91957067  0.61414953  0.31291749     1.04500
O2532       O  0.91157161  0.62022814  0.19823674    -1.12700
O2533       O  0.87640709  0.56408233  0.16357884    -0.75200
O2534       O  0.91126386  0.56771183  0.20465129    -0.78600
O2535       O  0.95144117  0.67325677  0.23523400    -0.79300
C2536       C  0.88781614  0.55354619  0.18780026     0.95900
O2537       O  0.95186840  0.61384197  0.14512275    -0.77300
O2538       O  0.85268089  0.59700681  0.18534297    -0.82500
C2539       C  0.90006606  0.66415240  0.13655529     0.98500
C2540       C  0.84965925  0.60765671  0.22318831     1.04500
O2541       O  0.90785026  0.66976202  0.17912856    -0.78100
C2542       C  0.94259177  0.61445292  0.10455902     1.02800
Fe2543     Fe  0.82829683  0.90200439  0.78845300     1.65800
Fe2544     Fe  0.78480370  0.90725962  0.86452593     1.73200
Fe2545     Fe  0.76109518  0.86251747  0.77466623     1.54400
O2546       O  0.77332778  0.88541415  0.71379268    -0.81900
O2547       O  0.75151520  0.86965852  0.88591424    -0.80200
O2548       O  0.81786758  0.89954742  0.71742624    -0.84400
O2549       O  0.82024524  0.86251355  0.78901597    -0.79200
O2550       O  0.73566792  0.87779220  0.79012865    -0.81000
O2551       O  0.80911474  0.89748100  0.90629497    -0.83700
C2552       C  0.80462789  0.84603604  0.75833850     0.97000
C2553       C  0.79676532  0.89535194  0.69488015     1.04500
O2554       O  0.79160313  0.89089766  0.80917610    -1.12700
O2555       O  0.81631078  0.94695086  0.84786869    -0.75200
O2556       O  0.83821538  0.94201864  0.78593343    -0.78600
O2557       O  0.78144106  0.84317782  0.75063155    -0.79300
C2558       C  0.83288823  0.95680835  0.81282047     0.95900
O2559       O  0.84307304  0.90541845  0.85658323    -0.77300
O2560       O  0.76052635  0.91746073  0.82492565    -0.82500
C2561       C  0.74153692  0.84483248  0.87292096     0.98500
C2562       C  0.74119675  0.90197147  0.79818066     1.04500
O2563       O  0.74846169  0.83873349  0.83401791    -0.78100
C2564       C  0.83161903  0.89840757  0.89707069     1.02800
Fe2565     Fe  0.90084227  0.84210763  0.55661416     1.65800
Fe2566     Fe  0.90583664  0.79883284  0.47971396     1.73200
Fe2567     Fe  0.86452535  0.77455929  0.57487671     1.54400
O2568       O  0.88921275  0.78778347  0.63292857    -0.81900
O2569       O  0.86854116  0.76413435  0.46308281    -0.80200
O2570       O  0.90278496  0.83212971  0.62674381    -0.84400
O2571       O  0.86141275  0.83302856  0.56518313    -0.79200
O2572       O  0.88042802  0.75008494  0.55640444    -0.81000
O2573       O  0.89290883  0.82149995  0.43949977    -0.83700
C2574       C  0.84679938  0.81696822  0.59750392     0.97000
C2575       C  0.89903168  0.81142373  0.65036973     1.04500
O2576       O  0.89063612  0.80542864  0.53701112    -1.12700
O2577       O  0.94530256  0.83179829  0.49118550    -0.75200
O2578       O  0.94114763  0.85459576  0.55194240    -0.78600
O2579       O  0.84505515  0.79396285  0.60288860    -0.79300
C2580       C  0.95561542  0.84937093  0.52426436     0.95900
O2581       O  0.89912197  0.85516615  0.48835462    -0.77300
O2582       O  0.91881280  0.77584098  0.51784954    -0.82500
C2583       C  0.84413068  0.75328638  0.47912442     0.98500
C2584       C  0.90454373  0.75628246  0.54587337     1.04500
O2585       O  0.83877987  0.76046232  0.51854075    -0.78100
C2586       C  0.89179530  0.84303598  0.44865155     1.02800
Fe2587     Fe  0.56687644  0.90526386  0.72636400     1.65800
Fe2588     Fe  0.61288945  0.90914614  0.64555745     1.73200
Fe2589     Fe  0.59510040  0.86551481  0.73928748     1.54400
O2590       O  0.59488827  0.88403728  0.80182640    -0.81900
O2591       O  0.60324934  0.87144518  0.61696659    -0.80200
O2592       O  0.58966178  0.92006536  0.78693477    -0.84400
O2593       O  0.54251494  0.87003531  0.76474509    -0.79200
O2594       O  0.63603234  0.88835472  0.74026528    -0.81000
O2595       O  0.57823086  0.90566746  0.61121412    -0.83700
C2596       C  0.54022231  0.84666694  0.76898246     0.97000
C2597       C  0.59553948  0.90594094  0.81470934     1.04500
O2598       O  0.59157846  0.89292283  0.70305832    -1.12700
O2599       O  0.62576582  0.94825514  0.67093813    -0.75200
O2600       O  0.58703189  0.94367688  0.69610874    -0.78600
O2601       O  0.55419255  0.83969485  0.74374189    -0.79300
C2602       C  0.61210826  0.95852440  0.68837115     0.95900
O2603       O  0.54446612  0.89044581  0.66560043    -0.77300
O2604       O  0.64886995  0.91363568  0.67425684    -0.82500
C2605       C  0.59801497  0.84884370  0.63583917     0.98500
C2606       C  0.65413592  0.90528561  0.71270034     1.04500
O2607       O  0.59590350  0.84474222  0.68030562    -0.78100
C2608       C  0.55307051  0.89498455  0.62269332     1.02800
Fe2609     Fe  0.67231626  0.61594581  0.27812133     1.65800
Fe2610     Fe  0.71342828  0.60739281  0.35681200     1.73200
Fe2611     Fe  0.74060469  0.65247438  0.26416300     1.54400
O2612       O  0.72591856  0.63395083  0.20048420    -0.81900
O2613       O  0.74601399  0.64314607  0.38222707    -0.80200
O2614       O  0.68145037  0.61724108  0.20648298    -0.84400
O2615       O  0.68130170  0.65578799  0.27495430    -0.79200
O2616       O  0.76037873  0.63030727  0.26867842    -0.81000
O2617       O  0.68840083  0.61665402  0.39759795    -0.83700
C2618       C  0.70141744  0.67622581  0.25617345     0.97000
C2619       C  0.70277391  0.62429410  0.18190110     1.04500
O2620       O  0.70884759  0.62534028  0.29982997    -1.12700
O2621       O  0.68188699  0.56880044  0.33790882    -0.75200
O2622       O  0.66000228  0.57520183  0.27809831    -0.78600
O2623       O  0.72451688  0.67783546  0.25148834    -0.79300
C2624       C  0.66468143  0.55969565  0.30432082     0.95900
O2625       O  0.65776342  0.61441704  0.34585218    -0.77300
O2626       O  0.73947625  0.59713573  0.32220223    -0.82500
C2627       C  0.76096528  0.66705530  0.36606087     0.98500
C2628       C  0.75691962  0.60892506  0.28943527     1.04500
O2629       O  0.75922396  0.67408921  0.32402594    -0.78100
C2630       C  0.66699728  0.61753419  0.38762482     1.02800
Fe2631     Fe  0.67048307  0.57943270  0.88962883     1.65800
Fe2632     Fe  0.71261090  0.62419526  0.80748143     1.73200
Fe2633     Fe  0.73818942  0.60979714  0.90548339     1.54400
O2634       O  0.71848113  0.60883497  0.96782151    -0.81900
O2635       O  0.74053566  0.61361482  0.78205094    -0.80200
O2636       O  0.67649405  0.60077280  0.95200006    -0.84400
O2637       O  0.68153985  0.55460492  0.92492358    -0.79200
O2638       O  0.75382368  0.65082262  0.90524431    -0.81000
O2639       O  0.68255444  0.58930642  0.77313249    -0.83700
C2640       C  0.70265977  0.55258020  0.93017641     0.97000
C2641       C  0.69619983  0.60747601  0.98033248     1.04500
O2642       O  0.70733548  0.60437467  0.86718917    -1.12700
O2643       O  0.68661817  0.63799744  0.83026975    -0.75200
O2644       O  0.65295960  0.60068151  0.86040073    -0.78600
O2645       O  0.72526607  0.56911987  0.91175324    -0.79300
C2646       C  0.66381464  0.62579415  0.85110452     0.95900
O2647       O  0.66371273  0.55686580  0.82900486    -0.77300
O2648       O  0.74347631  0.66058505  0.83423039    -0.82500
C2649       C  0.75933761  0.61124475  0.80231491     0.98500
C2650       C  0.75597437  0.66767137  0.87359162     1.04500
O2651       O  0.76154915  0.61146899  0.84722706    -0.78100
C2652       C  0.66874510  0.56438887  0.78577107     1.02800
Fe2653     Fe  0.55979382  0.66707405  0.45376845     1.65800
Fe2654     Fe  0.60845889  0.71382663  0.52408819     1.73200
Fe2655     Fe  0.58374003  0.73385962  0.43294015     1.54400
O2656       O  0.58956686  0.71866150  0.37064978    -0.81900
O2657       O  0.60563498  0.74815625  0.54305651    -0.80200
O2658       O  0.56236791  0.67439553  0.38100442    -0.84400
O2659       O  0.52679488  0.67280013  0.45805121    -0.79200
O2660       O  0.62521579  0.75845553  0.43673048    -0.81000
O2661       O  0.57497131  0.69062308  0.56813748    -0.83700
C2662       C  0.52379926  0.68811158  0.42878967     0.97000
C2663       C  0.57508604  0.69499244  0.35428946     1.04500
O2664       O  0.58424454  0.70500870  0.46993775    -1.12700
O2665       O  0.61604922  0.68137749  0.51101991    -0.75200
O2666       O  0.59145058  0.65956291  0.44786358    -0.78600
O2667       O  0.54249876  0.71229350  0.42123400    -0.79300
C2668       C  0.61060275  0.66486090  0.47652772     0.95900
O2669       O  0.55293174  0.65387162  0.52373654    -0.77300
O2670       O  0.64231004  0.73834870  0.48240556    -0.82500
C2671       C  0.59219392  0.75937710  0.52859129     0.98500
C2672       C  0.64513147  0.75618855  0.45168012     1.04500
O2673       O  0.57775508  0.75175381  0.49160406    -0.78100
C2674       C  0.55540605  0.66662035  0.56201259     1.02800
Fe2675     Fe  0.82726719  0.94038798  0.40215999     1.65800
Fe2676     Fe  0.78491995  0.89266060  0.32470994     1.73200
Fe2677     Fe  0.75928973  0.90951331  0.42099278     1.54400
O2678       O  0.77920910  0.91332084  0.48363154    -0.81900
O2679       O  0.75573717  0.90132126  0.29907653    -0.80200
O2680       O  0.82162951  0.92237484  0.46784327    -0.84400
O2681       O  0.81553151  0.96660379  0.43056700    -0.79200
O2682       O  0.74404990  0.86843562  0.42540862    -0.81000
O2683       O  0.81332906  0.92667509  0.28574804    -0.83700
C2684       C  0.79427054  0.96860752  0.43507346     0.97000
C2685       C  0.80199646  0.91636449  0.49636482     1.04500
O2686       O  0.79039221  0.91416203  0.38239875    -1.12700
O2687       O  0.81323684  0.88121339  0.34493063    -0.75200
O2688       O  0.84527690  0.91800727  0.37965024    -0.78600
O2689       O  0.77114372  0.95008260  0.42257851    -0.79300
C2690       C  0.83645159  0.89418134  0.36398760     0.95900
O2691       O  0.83476945  0.96033873  0.33795711    -0.77300
O2692       O  0.75531578  0.85664451  0.35685875    -0.82500
C2693       C  0.73717568  0.90450861  0.31866253     0.98500
C2694       C  0.74258921  0.85063905  0.39655814     1.04500
O2695       O  0.73539093  0.90570925  0.36333943    -0.78100
C2696       C  0.82880061  0.95166728  0.29566953     1.02800
Fe2697     Fe  0.59585999  0.67082533  0.06333010     1.65800
Fe2698     Fe  0.59485247  0.71656691  0.98638899     1.73200
Fe2699     Fe  0.63139333  0.73734138  0.08756623     1.54400
O2700       O  0.61024297  0.71481692  0.14681579    -0.81900
O2701       O  0.63351011  0.74537982  0.96548263    -0.80200
O2702       O  0.57730111  0.67399193  0.12395722    -0.84400
O2703       O  0.62992494  0.68043300  0.10488581    -0.79200
O2704       O  0.60669750  0.75382577  0.08847436    -0.81000
O2705       O  0.60129708  0.68772195  0.94934292    -0.83700
C2706       C  0.65256703  0.70167045  0.11154381     0.97000
C2707       C  0.58878854  0.69230253  0.15513371     1.04500
O2708       O  0.60744403  0.70848959  0.04546866    -1.12700
O2709       O  0.55505735  0.68933310  0.00346904    -0.75200
O2710       O  0.55874235  0.65442848  0.02871658    -0.78600
O2711       O  0.65858337  0.72355572  0.09046872    -0.79300
C2712       C  0.54422301  0.66509660  0.01822739     0.95900
O2713       O  0.61436817  0.66702466  0.00310013    -0.77300
O2714       O  0.58763973  0.74642361  0.01718279    -0.82500
C2715       C  0.65380513  0.76295553  0.98850448     0.98500
C2716       C  0.59233867  0.75743437  0.05813863     1.04500
O2717       O  0.65474583  0.76294711  0.03348791    -0.78100
C2718       C  0.61190307  0.67298296  0.96038972     1.02800
Fe2719     Fe  0.60605128  0.94396978  0.10807396     1.65800
Fe2720     Fe  0.59559958  0.89514347  0.18909057     1.73200
Fe2721     Fe  0.63834789  0.90771085  0.09688635     1.54400
O2722       O  0.61449533  0.89819041  0.03852469    -0.81900
O2723       O  0.63130480  0.89512942  0.21068561    -0.80200
O2724       O  0.60661667  0.93303205  0.03783835    -0.84400
O2725       O  0.64671246  0.97221838  0.10229739    -0.79200
O2726       O  0.61883839  0.86729496  0.11413419    -0.81000
O2727       O  0.60850241  0.93054582  0.22820229    -0.83700
C2728       C  0.66260992  0.96904456  0.07439282     0.97000
C2729       C  0.60906134  0.91444272  0.01661206     1.04500
O2730       O  0.61344777  0.91591194  0.13188125    -1.12700
O2731       O  0.55778876  0.89202244  0.17355472    -0.75200
O2732       O  0.56484007  0.91792812  0.10965203    -0.78600
O2733       O  0.66162317  0.94631410  0.06994684    -0.79300
C2734       C  0.54893175  0.89986422  0.13870191     0.95900
O2735       O  0.60575964  0.95874834  0.17553841    -0.77300
O2736       O  0.58127291  0.85860062  0.15315193    -0.82500
C2737       C  0.65581915  0.90593095  0.19537340     0.98500
C2738       C  0.59474521  0.85117793  0.12698306     1.04500
O2739       O  0.66292131  0.91665696  0.15446405    -0.78100
C2740       C  0.60975850  0.95303995  0.21749615     1.02800
Fe2741     Fe  0.90076457  0.57475095  0.60724276     1.65800
Fe2742     Fe  0.90292646  0.62052648  0.68814437     1.73200
Fe2743     Fe  0.86770724  0.60981796  0.58545347     1.54400
O2744       O  0.88720452  0.60755130  0.52448284    -0.81900
O2745       O  0.86427479  0.61167954  0.70890936    -0.80200
O2746       O  0.91700540  0.59404994  0.54382738    -0.84400
O2747       O  0.86470035  0.55091884  0.57177494    -0.79200
O2748       O  0.89462830  0.65043635  0.58701553    -0.81000
O2749       O  0.89595161  0.58479562  0.72410807    -0.83700
C2750       C  0.84301287  0.55158217  0.56312204     0.97000
C2751       C  0.90632090  0.60272403  0.51397447     1.04500
O2752       O  0.89033384  0.60167262  0.62710228    -1.12700
O2753       O  0.94277801  0.63202776  0.67110006    -0.75200
O2754       O  0.93954348  0.59568133  0.63575992    -0.78600
O2755       O  0.83856007  0.56996749  0.57869726    -0.79300
C2756       C  0.95376843  0.61977987  0.65101587     0.95900
O2757       O  0.88468083  0.55280300  0.66868200    -0.77300
O2758       O  0.91094325  0.65838690  0.66065295    -0.82500
C2759       C  0.84497898  0.61168797  0.68588531     0.98500
C2760       C  0.90782304  0.66659325  0.62013471     1.04500
O2761       O  0.84506262  0.61276538  0.64083735    -0.78100
C2762       C  0.88682091  0.56007727  0.71182792     1.02800
Fe2763     Fe  0.93698549  0.84288084  0.94365602     1.65800
Fe2764     Fe  0.88801297  0.79798156  0.01896294     1.73200
Fe2765     Fe  0.90993766  0.77553635  0.92466931     1.54400
O2766       O  0.91474382  0.79606682  0.86170803    -0.81900
O2767       O  0.89432132  0.76708523  0.04461928    -0.80200
O2768       O  0.92044147  0.83720600  0.87737546    -0.84400
O2769       O  0.96568955  0.83340118  0.91863060    -0.79200
O2770       O  0.86925326  0.75946263  0.91702365    -0.81000
O2771       O  0.92143240  0.82534137  0.06052069    -0.83700
C2772       C  0.96894518  0.81278256  0.91553800     0.97000
C2773       C  0.91590322  0.81813712  0.84902950     1.04500
O2774       O  0.91169273  0.80535553  0.96303349    -1.12700
O2775       O  0.87710057  0.82691327  0.00083979    -0.75200
O2776       O  0.91260111  0.85884983  0.96266823    -0.78600
O2777       O  0.95077031  0.78924644  0.92768767    -0.79300
C2778       C  0.88914653  0.84980347  0.98013432     0.95900
O2779       O  0.95475374  0.85082212  0.00869177    -0.77300
O2780       O  0.85337077  0.77032719  0.98110064    -0.82500
C2781       C  0.89926176  0.74973564  0.02513813     0.98500
C2782       C  0.84972801  0.75831135  0.94114746     1.04500
O2783       O  0.90471338  0.75032630  0.98135431    -0.78100
C2784       C  0.94599830  0.84326548  0.05072055     1.02800
C2785       C  0.00498469  0.85904905  0.13105370    -0.06000
C2786       C  0.51908038  0.88622094  0.12886014     0.00000
C2787       C  0.50695134  0.89962557  0.10459901    -0.08600
C2788       C  0.97869959  0.88490078  0.09110605    -0.06000
C2789       C  0.96650079  0.85654254  0.08834006    -0.00100
C2790       C  0.97938714  0.84324847  0.10982549    -0.08500
C2791       C  0.96738105  0.81272886  0.10592772     0.61900
H2792       H  0.51214734  0.84799979  0.15710295     0.12500
H2793       H  0.96877727  0.89474429  0.07362754     0.12600
C2794       C  0.52095502  0.93026351  0.09912056     0.62100
F2795       F  0.98267512  0.80357955  0.12995627    -0.23100
F2796       F  0.96628243  0.80561569  0.05862102    -0.20400
F2797       F  0.94145411  0.79984531  0.12501535    -0.20100
F2798       F  0.53910678  0.93840187  0.06143707    -0.20100
F2799       F  0.53453908  0.94271360  0.14034782    -0.20500
F2800       F  0.50233898  0.93893703  0.09039250    -0.23100
C2801       C  0.58085789  0.81820558  0.06182533    -0.06000
C2802       C  0.58333774  0.82292283  0.11105758     0.00000
C2803       C  0.58171218  0.80266745  0.14209194    -0.08600
C2804       C  0.58022804  0.77917122  0.12249945    -0.06000
C2805       C  0.58235417  0.77634137  0.07300843    -0.00100
C2806       C  0.58043639  0.79511710  0.04188880    -0.08500
C2807       C  0.57983059  0.79207971  0.98824991     0.61900
H2808       H  0.58173195  0.83402060  0.03886541     0.12500
H2809       H  0.58017579  0.76400086  0.14611706     0.12600
C2810       C  0.58394798  0.80704200  0.19541212     0.62100
F2811       F  0.57570289  0.81150865  0.96554969    -0.23100
F2812       F  0.55883350  0.76686646  0.97571629    -0.20400
F2813       F  0.60418749  0.79478911  0.97216612    -0.20100
F2814       F  0.56290368  0.81083963  0.21145426    -0.20100
F2815       F  0.60842472  0.82961459  0.20636143    -0.20500
F2816       F  0.58269119  0.78512167  0.21929980    -0.23100
C2817       C  0.68003324  0.91634652  0.27189120    -0.06000
C2818       C  0.67690251  0.90575814  0.22601482     0.00000
C2819       C  0.69395542  0.89548198  0.21017811    -0.08600
C2820       C  0.71310830  0.89548382  0.24175142    -0.06000
C2821       C  0.71641874  0.90601530  0.28800739    -0.00100
C2822       C  0.69998227  0.91742453  0.30299173    -0.08500
C2823       C  0.70379433  0.93169673  0.35044164     0.61900
H2824       H  0.66694665  0.92436267  0.28277685     0.12500
H2825       H  0.72580628  0.88717630  0.23016916     0.12600
C2826       C  0.69193327  0.88427216  0.16032951     0.62100
F2827       F  0.68822140  0.94437982  0.35398903    -0.23100
F2828       F  0.73065874  0.95144076  0.35540701    -0.20400
F2829       F  0.69618458  0.91315149  0.38736695    -0.20100
F2830       F  0.70113099  0.90522457  0.12750956    -0.20100
F2831       F  0.66533587  0.86537636  0.15050634    -0.20500
F2832       F  0.70741734  0.87158808  0.15503635    -0.23100
C2833       C  0.78567729  0.98774348  0.50725822    -0.06000
C2834       C  0.79708988  0.99222831  0.46124504     0.00000
C2835       C  0.82342007  0.52024819  0.44328424    -0.08600
C2836       C  0.83503606  0.53937104  0.47955707    -0.06000
C2837       C  0.82521003  0.53323378  0.52639323    -0.00100
C2838       C  0.80085714  0.50918274  0.53631551    -0.08500
C2839       C  0.78457210  0.00413530  0.59122269     0.61900
H2840       H  0.76902005  0.96787264  0.51638804     0.12500
H2841       H  0.85290932  0.55871835  0.47209957     0.12600
C2842       C  0.83395938  0.52737910  0.39271439     0.62100
F2843       F  0.76054713  0.97980047  0.59486939    -0.23100
F2844       F  0.78136861  0.52501313  0.59375461    -0.20400
F2845       F  0.80459862  0.50471745  0.61937040    -0.20100
F2846       F  0.81238213  0.51947046  0.36206292    -0.20100
F2847       F  0.84829217  0.51433718  0.38037030    -0.20500
F2848       F  0.85081265  0.55501775  0.38723172    -0.23100
C2849       C  0.69413796  0.78736878  0.46561327    -0.06000
C2850       C  0.67253888  0.77617591  0.43354175     0.00000
C2851       C  0.67709979  0.78598205  0.38582153    -0.08600
C2852       C  0.70194521  0.80880337  0.37377528    -0.06000
C2853       C  0.72219952  0.82211630  0.40754478    -0.00100
C2854       C  0.71907711  0.81023121  0.45334250    -0.08500
C2855       C  0.74224222  0.82093190  0.48831732     0.61900
H2856       H  0.69084511  0.77904963  0.50129882     0.12500
H2857       H  0.70470227  0.81787834  0.33875654     0.12600
C2858       C  0.65563688  0.77346332  0.34775078     0.62100
F2859       F  0.76441701  0.82144531  0.46636840    -0.23100
F2860       F  0.73591459  0.80458720  0.52836012    -0.20400
F2861       F  0.74871477  0.84668382  0.50312327    -0.20100
F2862       F  0.63650503  0.78170406  0.35386632    -0.20100
F2863       F  0.64333429  0.74552380  0.35036937    -0.20500
F2864       F  0.66669333  0.78122158  0.30256641    -0.23100
C2865       C  0.57159747  0.66822306  0.28221295    -0.06000
C2866       C  0.57249408  0.69139708  0.30231684     0.00000
C2867       C  0.57170671  0.71107856  0.27206020    -0.08600
C2868       C  0.57582150  0.70982093  0.22342389    -0.06000
C2869       C  0.57777677  0.68819256  0.20366074    -0.00100
C2870       C  0.57357441  0.66593907  0.23266785    -0.08500
C2871       C  0.57215886  0.64054240  0.21179471     0.61900
H2872       H  0.57059133  0.65252188  0.30564055     0.12500
H2873       H  0.57799006  0.72623249  0.20047177     0.12600
C2874       C  0.56695194  0.73386747  0.28893117     0.62100
F2875       F  0.56767858  0.62136578  0.24651224    -0.23100
F2876       F  0.59615995  0.64690497  0.18858335    -0.20400
F2877       F  0.55099552  0.62899169  0.17987361    -0.20100
F2878       F  0.59152567  0.75755537  0.29184555    -0.20100
F2879       F  0.55396869  0.72841536  0.33235659    -0.20500
F2880       F  0.55045854  0.73753272  0.25709194    -0.23100
C2881       C  0.52249707  0.67033707  0.61506519    -0.06000
C2882       C  0.53275669  0.65397386  0.59743113     0.00000
C2883       C  0.51806806  0.62562162  0.60660553    -0.08600
C2884       C  0.99519746  0.61831026  0.62470202    -0.06000
C2885       C  0.98392810  0.63410302  0.64176204    -0.00100
C2886       C  0.49645328  0.65925950  0.63600163    -0.08500
C2887       C  0.48594041  0.67857070  0.64898503     0.61900
H2888       H  0.53412300  0.69195716  0.60818687     0.12500
H2889       H  0.98304110  0.59636826  0.62526690     0.12600
C2890       C  0.52921594  0.60700716  0.59264644     0.62100
F2891       F  0.50514396  0.70548107  0.64118705    -0.23100
F2892       F  0.98265732  0.67569842  0.70765069    -0.20400
F2893       F  0.97016469  0.67992130  0.63308638    -0.20100
F2894       F  0.55606210  0.61839503  0.60616098    -0.20100
F2895       F  0.52735960  0.60294029  0.54406317    -0.20500
F2896       F  0.02557443  0.59086263  0.61701821    -0.23100
C2897       C  0.82098908  0.73337539  0.87246121    -0.06000
C2898       C  0.82209759  0.74103342  0.92062262     0.00000
C2899       C  0.79758207  0.72934532  0.94741321    -0.08600
C2900       C  0.77474632  0.70656325  0.92855928    -0.06000
C2901       C  0.77540405  0.69639032  0.88328229    -0.00100
C2902       C  0.79795118  0.71129354  0.85316532    -0.08500
C2903       C  0.79852730  0.70259250  0.80223721     0.61900
H2904       H  0.83908332  0.74351262  0.85059633     0.12500
H2905       H  0.75676642  0.69529976  0.95043069     0.12600
C2906       C  0.79542011  0.73989416  0.99583583     0.62100
F2907       F  0.82233419  0.72030864  0.77879989    -0.23100
F2908       F  0.77719798  0.70192820  0.77731710    -0.20400
F2909       F  0.79626430  0.67708991  0.80178352    -0.20100
F2910       F  0.80494800  0.76755994  0.99309614    -0.20100
F2911       F  0.81034202  0.73465190  0.02861450    -0.20500
F2912       F  0.76883077  0.72775025  0.01193272    -0.23100
C2913       C  0.78606569  0.62210864  0.72739286    -0.06000
C2914       C  0.78010431  0.60929788  0.77213377     0.00000
C2915       C  0.79407457  0.59535028  0.78645677    -0.08600
C2916       C  0.81492445  0.59669393  0.75701734    -0.06000
C2917       C  0.82152029  0.61027944  0.71293861    -0.00100
C2918       C  0.80605977  0.62241626  0.69690857    -0.08500
C2919       C  0.81020482  0.63564202  0.64808383     0.61900
H2920       H  0.77490069  0.63217571  0.71645038     0.12500
H2921       H  0.82626657  0.58686035  0.76831434     0.12600
C2922       C  0.78669313  0.57832637  0.83166194     0.62100
F2923       F  0.79429426  0.64777573  0.64194148    -0.23100
F2924       F  0.80319208  0.61615996  0.61320303    -0.20400
F2925       F  0.83691500  0.65550726  0.64183465    -0.20100
F2926       F  0.75895426  0.56115114  0.83385528    -0.20100
F2927       F  0.79497106  0.59498271  0.87105755    -0.20500
F2928       F  0.79899207  0.56236291  0.83331189    -0.23100
C2929       C  0.62168502  0.62560731  0.87779250    -0.06000
C2930       C  0.64974054  0.64087141  0.86804354     0.00000
C2931       C  0.66393440  0.66865113  0.88228971    -0.08600
C2932       C  0.65007082  0.67895038  0.90967060    -0.06000
C2933       C  0.62279246  0.66282130  0.92254350    -0.00100
C2934       C  0.60794258  0.63620063  0.90467080    -0.08500
C2935       C  0.57773459  0.61917286  0.91430257     0.61900
H2936       H  0.61071132  0.60477712  0.86581986     0.12500
H2937       H  0.66083040  0.69939712  0.92358150     0.12600
C2938       C  0.69383306  0.68720250  0.87135587     0.62100
F2939       F  0.56700104  0.59361661  0.89435904    -0.23100
F2940       F  0.56457810  0.63204108  0.89496819    -0.20400
F2941       F  0.57271869  0.61600772  0.96272070    -0.20100
F2942       F  0.69804634  0.68901635  0.82267900    -0.20100
F2943       F  0.70905015  0.67713618  0.89261820    -0.20500
F2944       F  0.70304974  0.71325914  0.88820163    -0.23100
C2945       C  0.67656642  0.98134399  0.99117798    -0.06000
C2946       C  0.67885858  0.99018289  0.03870897     0.00000
C2947       C  0.69329860  0.52285565  0.05092405    -0.08600
C2948       C  0.70395245  0.54152375  0.01310189    -0.06000
C2949       C  0.70091895  0.53290854  0.96561252    -0.00100
C2950       C  0.68936067  0.50520129  0.95500349    -0.08500
C2951       C  0.68500667  0.49550087  0.90387671     0.61900
H2952       H  0.66541839  0.95982422  0.98387966     0.12500
H2953       H  0.71222447  0.56300078  0.01998936     0.12600
C2954       C  0.69608085  0.02897789  0.09882342     0.62100
F2955       F  0.67370065  0.46762672  0.90105890    -0.23100
F2956       F  0.70963007  0.50730608  0.88001472    -0.20400
F2957       F  0.66772215  0.50270434  0.88150381    -0.20100
F2958       F  0.70437366  0.01503577  0.12869063    -0.20100
F2959       F  0.67145251  0.02567675  0.11463730    -0.20500
F2960       F  0.71033674  0.56086788  0.10395833    -0.23100
C2961       C  0.62244020  0.51948803  0.27776651    -0.06000
C2962       C  0.64930881  0.53000498  0.29337912     0.00000
C2963       C  0.66153307  0.51323627  0.29061648    -0.08600
C2964       C  0.64320512  0.98353943  0.27602223    -0.06000
C2965       C  0.61806525  0.97461740  0.25398354    -0.00100
C2966       C  0.60469065  0.99002851  0.25959053    -0.08500
C2967       C  0.57619359  0.98063498  0.24173369     0.61900
H2968       H  0.61299498  0.53209210  0.28092045     0.12500
H2969       H  0.65300058  0.97131201  0.27175509     0.12600
C2970       C  0.69014029  0.52281394  0.30796882     0.62100
F2971       F  0.56126925  0.98488667  0.27646709    -0.23100
F2972       F  0.56254892  0.95327591  0.23090824    -0.20400
F2973       F  0.57746305  0.99539230  0.20160983    -0.20100
F2974       F  0.69165141  0.52838585  0.35604757    -0.20100
F2975       F  0.70810150  0.54588964  0.28324796    -0.20500
F2976       F  0.69806691  0.50344435  0.30127229    -0.23100
C2977       C  0.71751833  0.63590936  0.04921236    -0.06000
C2978       C  0.69428997  0.61393179  0.03040184     0.00000
C2979       C  0.67289952  0.59638608  0.06111720    -0.08600
C2980       C  0.67630134  0.60084164  0.11040649    -0.06000
C2981       C  0.70053391  0.62163140  0.12950797    -0.00100
C2982       C  0.72139117  0.63999933  0.09821436    -0.08500
C2983       C  0.74799746  0.66359416  0.11539839     0.61900
H2984       H  0.73350598  0.64908863  0.02480879     0.12500
H2985       H  0.66040569  0.58734046  0.13459239     0.12600
C2986       C  0.64730891  0.57233652  0.04235669     0.62100
F2987       F  0.76366579  0.65388723  0.13608857    -0.23100
F2988       F  0.76303912  0.68083786  0.07860493    -0.20400
F2989       F  0.74298897  0.67877677  0.14805029    -0.20100
F2990       F  0.65387220  0.55493695  0.01852637    -0.20100
F2991       F  0.63434982  0.58132491  0.01166061    -0.20500
F2992       F  0.62925952  0.55781130  0.07857579    -0.23100
C2993       C  0.65752324  0.69727044  0.19701227    -0.06000
C2994       C  0.66949171  0.70213805  0.15157332     0.00000
C2995       C  0.69707924  0.70915470  0.14713958    -0.08600
C2996       C  0.71027170  0.70661756  0.18763814    -0.06000
C2997       C  0.69611388  0.69616692  0.23075532    -0.00100
C2998       C  0.67104872  0.69548570  0.23717628    -0.08500
C2999       C  0.65798673  0.69236402  0.28555763     0.61900
H3000       H  0.63742485  0.69488981  0.20129386     0.12500
H3001       H  0.73062900  0.70972791  0.18431260     0.12600
C3002       C  0.71170959  0.71707918  0.09954487     0.62100
F3003       F  0.65012385  0.71184738  0.29064477    -0.23100
F3004       F  0.67580548  0.69581327  0.32188575    -0.20400
F3005       F  0.63532861  0.66696148  0.28962017    -0.20100
F3006       F  0.71134613  0.73963377  0.08139504    -0.20100
F3007       F  0.69901469  0.69575551  0.06810532    -0.20500
F3008       F  0.73855533  0.72338534  0.10344160    -0.23100
C3009       C  0.66835986  0.65155727  0.44340659    -0.06000
C3010       C  0.65342624  0.62544850  0.42426543     0.00000
C3011       C  0.62508908  0.61052663  0.43195868    -0.08600
C3012       C  0.61219527  0.62342855  0.45431949    -0.06000
C3013       C  0.62666271  0.65084971  0.46794920    -0.00100
C3014       C  0.65542293  0.66487317  0.46440816    -0.08500
C3015       C  0.67222646  0.69455992  0.47759822     0.61900
H3016       H  0.69006034  0.66253255  0.43709239     0.12500
H3017       H  0.59030608  0.61274887  0.45801628     0.12600
C3018       C  0.60849520  0.58138974  0.41526040     0.62100
F3019       F  0.69973141  0.70413251  0.47118924    -0.23100
F3020       F  0.66795338  0.69815091  0.52484912    -0.20400
F3021       F  0.66495691  0.70983201  0.44908896    -0.20100
F3022       F  0.62053066  0.56651366  0.43033503    -0.20100
F3023       F  0.60695309  0.58055926  0.36621576    -0.20500
F3024       F  0.58231234  0.56915164  0.43334869    -0.23100
C3025       C  0.57157239  0.77859604  0.58267520    -0.06000
C3026       C  0.59386417  0.78266928  0.55490969     0.00000
C3027       C  0.61684760  0.80896157  0.55123549    -0.08600
C3028       C  0.61670332  0.83048086  0.57603981    -0.06000
C3029       C  0.59492081  0.82618900  0.60555324    -0.00100
C3030       C  0.57189116  0.79987894  0.60899243    -0.08500
C3031       C  0.54819780  0.79394302  0.64172419     0.61900
H3032       H  0.55425841  0.75832870  0.58486976     0.12500
H3033       H  0.63405571  0.85070469  0.57392562     0.12600
C3034       C  0.64132962  0.81430066  0.52105648     0.62100
F3035       F  0.52582802  0.76900148  0.63216957    -0.23100
F3036       F  0.54054092  0.81358881  0.63656490    -0.20400
F3037       F  0.55582543  0.79360320  0.68816443    -0.20100
F3038       F  0.63375730  0.80881864  0.47399007    -0.20100
F3039       F  0.65168704  0.79795035  0.53616328    -0.20500
F3040       F  0.66185047  0.84102303  0.52404505    -0.23100
C3041       C  0.53246401  0.84426111  0.85488299    -0.06000
C3042       C  0.52542590  0.83051648  0.81119152     0.00000
C3043       C  0.00630539  0.81038998  0.80930449    -0.08600
C3044       C  0.98871039  0.80037935  0.84898718    -0.06000
C3045       C  0.99315004  0.81633405  0.88983958    -0.00100
C3046       C  0.51664173  0.83323183  0.89565072    -0.08500
C3047       C  0.52545172  0.84910046  0.94161818     0.61900
H3048       H  0.54989380  0.86439503  0.85693528     0.12500
H3049       H  0.97008532  0.78102818  0.84667832     0.12600
C3050       C  0.00194130  0.79239565  0.76669563     0.62100
F3051       F  0.55177545  0.85531078  0.95168730    -0.23100
F3052       F  0.01096774  0.84136078  0.97874629    -0.20400
F3053       F  0.52447919  0.87295576  0.93678025    -0.20100
F3054       F  0.02313991  0.78688441  0.76371122    -0.20100
F3055       F  0.49707822  0.79896627  0.72642160    -0.20500
F3056       F  0.97800076  0.76794854  0.77060346    -0.23100
C3057       C  0.65866398  0.50362872  0.71385401    -0.06000
C3058       C  0.62607945  0.98790370  0.70329956     0.00000
C3059       C  0.61205395  0.00222531  0.71625566    -0.08600
C3060       C  0.63258764  0.53384664  0.73062978    -0.06000
C3061       C  0.65842708  0.54273678  0.74943666    -0.00100
C3062       C  0.67221578  0.52811231  0.73929924    -0.08500
C3063       C  0.70112779  0.53837105  0.75576983     0.61900
H3064       H  0.66856464  0.49160932  0.70827972     0.12500
H3065       H  0.62241350  0.54537282  0.73872294     0.12600
C3066       C  0.58209632  0.99120827  0.70625769     0.62100
F3067       F  0.71073208  0.52088729  0.74350169    -0.23100
F3068       F  0.70261919  0.54125482  0.80462790    -0.20400
F3069       F  0.71779459  0.56324828  0.73467852    -0.20100
F3070       F  0.56654856  0.96991310  0.73686029    -0.20100
F3071       F  0.57658703  0.98249227  0.65967672    -0.20500
F3072       F  0.57446604  0.01083812  0.71248589    -0.23100
C3073       C  0.61840044  0.90378445  0.88635060    -0.06000
C3074       C  0.60230119  0.91332944  0.86493532     0.00000
C3075       C  0.58993796  0.92492244  0.89332895    -0.08600
C3076       C  0.59231645  0.92428051  0.94282168    -0.06000
C3077       C  0.60680729  0.91289362  0.96441720    -0.00100
C3078       C  0.62078039  0.90297512  0.93559837    -0.08500
C3079       C  0.63826494  0.89160442  0.95546777     0.61900
H3080       H  0.62846548  0.89589515  0.86376247     0.12500
H3081       H  0.58240164  0.93238743  0.96524559     0.12600
C3082       C  0.57405337  0.93755411  0.87217770     0.62100
F3083       F  0.65134248  0.88536118  0.91993158    -0.23100
F3084       F  0.62226895  0.86794244  0.98062614    -0.20400
F3085       F  0.65804856  0.91043390  0.98478882    -0.20100
F3086       F  0.56426734  0.94796429  0.90683234    -0.20100
F3087       F  0.55210536  0.91828376  0.84709703    -0.20500
F3088       F  0.59078595  0.95870860  0.84219980    -0.23100
C3089       C  0.92899047  0.70549958  0.56452465    -0.06000
C3090       C  0.91793264  0.69579265  0.61006524     0.00000
C3091       C  0.90993593  0.71135839  0.63834298    -0.08600
C3092       C  0.90840879  0.73297871  0.61666842    -0.06000
C3093       C  0.91509500  0.73967328  0.56843334    -0.00100
C3094       C  0.92777865  0.72740838  0.54300568    -0.08500
C3095       C  0.93830272  0.73616950  0.49276429     0.61900
H3096       H  0.93656951  0.69432570  0.54445860     0.12500
H3097       H  0.90026864  0.74381387  0.63651489     0.12600
C3098       C  0.90209657  0.70472155  0.69035746     0.62100
F3099       F  0.95045677  0.72200201  0.47501888    -0.23100
F3100       F  0.95760564  0.76326384  0.49233832    -0.20400
F3101       F  0.91725754  0.73205918  0.46300955    -0.20100
F3102       F  0.92382826  0.70613559  0.71497913    -0.20100
F3103       F  0.88014551  0.67896614  0.69528306    -0.20500
F3104       F  0.89521382  0.72279158  0.71091282    -0.23100
C3105       C  0.82916492  0.71900085  0.41466610    -0.06000
C3106       C  0.82165931  0.73072625  0.45185242     0.00000
C3107       C  0.79339413  0.71944267  0.46306643    -0.12200
C3108       C  0.77416459  0.69845123  0.43432696    -0.06000
C3109       C  0.78203434  0.68771374  0.39666778    -0.00100
C3110       C  0.80985956  0.69727805  0.38768932    -0.08500
C3111       C  0.81903696  0.68394226  0.35056177     0.61900
H3112       H  0.85047417  0.72668973  0.40702138     0.12500
H3113       H  0.75264291  0.69016280  0.44086502     0.12600
C3114       C  0.78301006  0.72875019  0.50513094     0.62100
F3115       F  0.84668685  0.69336176  0.35248375    -0.23100
F3116       F  0.81291518  0.68916330  0.30560297    -0.20400
F3117       F  0.80594706  0.65619522  0.35822078    -0.20100
F3118       F  0.79164419  0.75618081  0.50118022    -0.20100
F3119       F  0.79230128  0.72353267  0.54710725    -0.20500
F3120       F  0.75495722  0.71526391  0.50776556    -0.23100
C3121       C  0.99695765  0.89173431  0.54691791    -0.06000
C3122       C  0.98537917  0.86419493  0.53414304     0.00000
C3123       C  0.00037087  0.85052276  0.54289975    -0.08600
C3124       C  0.52274418  0.85988189  0.56695349    -0.06000
C3125       C  0.53252841  0.88608545  0.58480300    -0.00100
C3126       C  0.51995082  0.90131111  0.57147225    -0.08500
C3127       C  0.53117740  0.93037665  0.58775299     0.61900
H3128       H  0.98552898  0.90213890  0.54011661     0.12500
H3129       H  0.53311998  0.84886751  0.57711380     0.12600
C3130       C  0.98909113  0.82088261  0.53127924     0.62100
F3131       F  0.01755795  0.94552255  0.56992530    -0.23100
F3132       F  0.55843067  0.94521074  0.57601526    -0.20400
F3133       F  0.52814431  0.93086748  0.63649355    -0.20100
F3134       F  0.98299282  0.81688729  0.48344860    -0.20100
F3135       F  0.96606165  0.80571673  0.55840728    -0.20500
F3136       F  0.50546822  0.80819525  0.53757055    -0.23100
C3137       C  0.93376755  0.82461247  0.76841084    -0.06000
C3138       C  0.91262618  0.82137174  0.79868382     0.00000
C3139       C  0.88764358  0.81688506  0.78013950    -0.08600
C3140       C  0.88376949  0.81329442  0.73094320    -0.06000
C3141       C  0.90451468  0.81509347  0.70097428    -0.00100
C3142       C  0.93025634  0.82224686  0.71913375    -0.08500
C3143       C  0.95363207  0.82733314  0.68635106     0.61900
H3144       H  0.95279856  0.82835065  0.78384479     0.12500
H3145       H  0.86459842  0.80906486  0.71546113     0.12600
C3146       C  0.86544111  0.81580338  0.81224815     0.62100
F3147       F  0.97717561  0.83468252  0.71136074    -0.23100
F3148       F  0.95855428  0.84822661  0.65516172    -0.20400
F3149       F  0.94723258  0.80410330  0.66077785    -0.20100
F3150       F  0.87491873  0.84032067  0.83546726    -0.20100
F3151       F  0.85784187  0.79536959  0.84565551    -0.20500
F3152       F  0.84263650  0.81097981  0.78686896    -0.23100
C3153       C  0.83860496  0.85223255  0.38240096    -0.06000
C3154       C  0.85278241  0.88024722  0.37269959     0.00000
C3155       C  0.88147755  0.89439971  0.37799459    -0.08600
C3156       C  0.89413147  0.88105861  0.40002968    -0.06000
C3157       C  0.87938403  0.85371833  0.41410068    -0.00100
C3158       C  0.85141076  0.83865882  0.40278389    -0.08500
C3159       C  0.83462201  0.80878951  0.41555169     0.61900
H3160       H  0.81687681  0.84133308  0.37720683     0.12500
H3161       H  0.91554597  0.89230527  0.40825335     0.12600
C3162       C  0.89889717  0.92341094  0.36071111     0.62100
F3163       F  0.80790472  0.79795071  0.40139740    -0.23100
F3164       F  0.83481006  0.80552476  0.46424144    -0.20400
F3165       F  0.84534892  0.79434158  0.39327246    -0.20100
F3166       F  0.89778337  0.94126000  0.39296577    -0.20100
F3167       F  0.88993221  0.92681232  0.31687630    -0.20500
F3168       F  0.92574942  0.92981372  0.35538788    -0.23100
C3169       C  0.68876547  0.92332597  0.77461018    -0.06000
C3170       C  0.68215826  0.91431061  0.72740803     0.00000
C3171       C  0.69894189  0.90696003  0.70133268    -0.08600
C3172       C  0.72003190  0.90584452  0.72528740    -0.06000
C3173       C  0.72441839  0.91152624  0.77406036    -0.00100
C3174       C  0.70986949  0.92210522  0.79863383    -0.08500
C3175       C  0.71546327  0.93038031  0.85040195     0.61900
H3176       H  0.67572116  0.92913985  0.79372672     0.12500
H3177       H  0.73208229  0.89856402  0.70688703     0.12600
C3178       C  0.69323104  0.89817123  0.64980577     0.62100
F3179       F  0.69804093  0.93892647  0.86803200    -0.23100
F3180       F  0.74168172  0.95158049  0.85473677    -0.20400
F3181       F  0.71236675  0.90869524  0.87784777    -0.20100
F3182       F  0.69378620  0.91890572  0.62282176    -0.20100
F3183       F  0.66798863  0.87530825  0.64620931    -0.20500
F3184       F  0.71229894  0.89205767  0.63112532    -0.23100
C3185       C  0.68447375  0.77612589  0.91899280    -0.06000
C3186       C  0.67744146  0.78399161  0.96155242     0.00000
C3187       C  0.69229112  0.81148259  0.97605176    -0.08600
C3188       C  0.71376187  0.83007044  0.94703682    -0.06000
C3189       C  0.72039460  0.82258145  0.90333100    -0.00100
C3190       C  0.70539104  0.79473833  0.88907387    -0.08500
C3191       C  0.71028894  0.78414684  0.84230185     0.61900
H3192       H  0.67293051  0.75496861  0.90898832     0.12500
H3193       H  0.72518305  0.85102754  0.95808753     0.12600
C3194       C  0.68481220  0.82169067  0.02057732     0.62100
F3195       F  0.69326986  0.75648120  0.83709020    -0.23100
F3196       F  0.73664754  0.78873745  0.84024980    -0.20400
F3197       F  0.70548147  0.79685261  0.80447052    -0.20100
F3198       F  0.69007305  0.81088210  0.06063509    -0.20100
F3199       F  0.65759127  0.81426132  0.01967054    -0.20500
F3200       F  0.69949258  0.84968903  0.02415381    -0.23100
C3201       C  0.83917913  0.85674374  0.69836045    -0.06000
C3202       C  0.81603914  0.83646609  0.72118066     0.00000
C3203       C  0.80182571  0.81031069  0.70133759    -0.08600
C3204       C  0.81150182  0.80538074  0.65854663    -0.06000
C3205       C  0.83459189  0.82584897  0.63502402    -0.00100
C3206       C  0.84854910  0.85237540  0.65495494    -0.08500
C3207       C  0.87350593  0.87624992  0.63243661     0.61900
H3208       H  0.84939607  0.87671268  0.71422478     0.12500
H3209       H  0.80125269  0.78521062  0.64338948     0.12600
C3210       C  0.77721996  0.78759708  0.72610281     0.62100
F3211       F  0.88127874  0.90028565  0.65648934    -0.23100
F3212       F  0.86839758  0.88031669  0.58618813    -0.20400
F3213       F  0.89521540  0.87167650  0.63308977    -0.20100
F3214       F  0.75524337  0.79182839  0.72185678    -0.20100
F3215       F  0.78270602  0.78680386  0.77377627    -0.20500
F3216       F  0.77024732  0.76253105  0.70674302    -0.23100
C3217       C  0.87268763  0.90444435  0.93864788    -0.06000
C3218       C  0.84455148  0.88886059  0.93241306     0.00000
C3219       C  0.83071155  0.86198582  0.95071037    -0.08600
C3220       C  0.84595563  0.85079026  0.97030958    -0.06000
C3221       C  0.87447425  0.86542872  0.97186043    -0.00100
C3222       C  0.88792219  0.89344573  0.95901679    -0.08500
C3223       C  0.91831393  0.91172810  0.96459510     0.61900
H3224       H  0.88299307  0.92497554  0.92462446     0.12500
H3225       H  0.83568547  0.82969643  0.98125393     0.12600
C3226       C  0.80015796  0.84446313  0.94631281     0.62100
F3227       F  0.92527217  0.93887184  0.96373871    -0.23100
F3228       F  0.93200467  0.90732074  0.92780742    -0.20400
F3229       F  0.92672485  0.90667614  0.00769305    -0.20100
F3230       F  0.79285645  0.84179802  0.89897440    -0.20100
F3231       F  0.78749656  0.85637875  0.97086848    -0.20500
F3232       F  0.79086318  0.81867104  0.96484486    -0.23100
C3233       C  0.87877484  0.49834244  0.77867295    -0.06000
C3234       C  0.84720288  0.98650037  0.80102598     0.00000
C3235       C  0.83361919  0.00174217  0.79343845    -0.08600
C3236       C  0.85296333  0.52934123  0.77165272    -0.06000
C3237       C  0.87794468  0.53825690  0.74836385    -0.00100
C3238       C  0.89177470  0.52333860  0.75418420    -0.08500
C3239       C  0.92004692  0.53366605  0.73366963     0.61900
H3240       H  0.88496402  0.98652515  0.79369269     0.12500
H3241       H  0.84287482  0.54127334  0.76726518     0.12600
C3242       C  0.80426986  0.99093766  0.80813854     0.62100
F3243       F  0.93103727  0.51756173  0.74719538    -0.23100
F3244       F  0.93693725  0.55973221  0.74969087    -0.20400
F3245       F  0.91928183  0.53393394  0.68457697    -0.20100
F3246       F  0.80161463  0.98654312  0.85671719    -0.20100
F3247       F  0.78806446  0.96692066  0.78482704    -0.20500
F3248       F  0.79505552  0.00889472  0.79704131    -0.23100
C3249       C  0.80643512  0.88690224  0.61369118    -0.06000
C3250       C  0.79996372  0.90240915  0.64464392     0.00000
C3251       C  0.79778129  0.92466838  0.62723718    -0.08600
C3252       C  0.79945052  0.92903739  0.57815796    -0.06000
C3253       C  0.80505465  0.91307441  0.54698788    -0.00100
C3254       C  0.80974044  0.89240259  0.56467351    -0.08500
C3255       C  0.81861465  0.87677680  0.53211673     0.61900
H3256       H  0.80902768  0.87058756  0.62827441     0.12500
H3257       H  0.79652620  0.94527252  0.56391908     0.12600
C3258       C  0.79510564  0.94515918  0.65833220     0.62100
F3259       F  0.81750093  0.85453120  0.55487268    -0.23100
F3260       F  0.84491753  0.89380290  0.51688707    -0.20400
F3261       F  0.80226191  0.86752769  0.49272446    -0.20100
F3262       F  0.79449356  0.94007147  0.70646001    -0.20100
F3263       F  0.77157637  0.94555168  0.64689883    -0.20500
F3264       F  0.81719928  0.97045972  0.64965598    -0.23100
C3265       C  0.80138262  0.59338994  0.21120197    -0.06000
C3266       C  0.82223971  0.59856031  0.24307726     0.00000
C3267       C  0.81752384  0.59936007  0.29268775    -0.08600
C3268       C  0.79389925  0.59959329  0.30760187    -0.06000
C3269       C  0.77485508  0.59826336  0.27470741    -0.00100
C3270       C  0.77751951  0.59295410  0.22633310    -0.08500
C3271       C  0.75640059  0.58771807  0.18894404     0.61900
H3272       H  0.80450179  0.59170243  0.17354531     0.12500
H3273       H  0.79140919  0.60314999  0.34469214     0.12600
C3274       C  0.83803303  0.60241420  0.33009714     0.62100
F3275       F  0.75050292  0.56406979  0.16528017    -0.23100
F3276       F  0.76673974  0.60891713  0.15661578    -0.20400
F3277       F  0.73245957  0.58473657  0.20778965    -0.20100
F3278       F  0.85583555  0.62966195  0.33755678    -0.20100
F3279       F  0.85237840  0.58959454  0.31610238    -0.20500
F3280       F  0.82515896  0.59081527  0.37275163    -0.23100
C3281       C  0.87588476  0.68248733  0.08907989    -0.06000
C3282       C  0.90057068  0.68603983  0.10678346     0.00000
C3283       C  0.92476237  0.71093369  0.09849608    -0.08600
C3284       C  0.92355269  0.73116295  0.07105025    -0.06000
C3285       C  0.89884296  0.72779670  0.05428598    -0.00100
C3286       C  0.87453050  0.70339031  0.06398007    -0.08500
C3287       C  0.84730868  0.69996525  0.04910957     0.61900
H3288       H  0.85760380  0.66364356  0.09661409     0.12500
H3289       H  0.94177414  0.75000553  0.06334386     0.12600
C3290       C  0.95172552  0.71623320  0.11875685     0.62100
F3291       F  0.82596190  0.67524757  0.06374094    -0.23100
F3292       F  0.84638298  0.70166053  0.00015164    -0.20400
F3293       F  0.84382137  0.72027396  0.06950620    -0.20100
F3294       F  0.95660009  0.69532080  0.10677136    -0.20100
F3295       F  0.95114043  0.71804822  0.16769712    -0.20500
F3296       F  0.97310018  0.74023826  0.10164595    -0.23100
C3297       C  0.97222638  0.65045411  0.04841634    -0.06000
C3298       C  0.96265515  0.62388514  0.06498771     0.00000
C3299       C  0.97761949  0.61056872  0.05436653    -0.08600
C3300       C  0.50301322  0.62093941  0.03606236    -0.06000
C3301       C  0.51408828  0.64884704  0.02631196    -0.00100
C3302       C  0.49684101  0.66057786  0.03127725    -0.08500
C3303       C  0.50611905  0.69006839  0.01885854     0.61900
H3304       H  0.96019006  0.66005254  0.05634856     0.12500
H3305       H  0.51530515  0.61131855  0.03030716     0.12600
C3306       C  0.96684037  0.58108224  0.06825369     0.62100
F3307       F  0.98919497  0.70317531  0.02488303    -0.23100
F3308       F  0.51488683  0.69517415  0.97204319    -0.20400
F3309       F  0.52689353  0.70705994  0.04867500    -0.20100
F3310       F  0.94033185  0.56581147  0.05311426    -0.20100
F3311       F  0.96759854  0.57869481  0.11706407    -0.20500
F3312       F  0.46805991  0.56288494  0.02616100    -0.23100
C3313       C  0.00158040  0.70619540  0.36213747    -0.06000
C3314       C  0.50147261  0.67680077  0.39377787     0.00000
C3315       C  0.49177188  0.65042020  0.37485612    -0.08600
C3316       C  0.48230255  0.64566190  0.32796202    -0.06000
C3317       C  0.98133234  0.67476368  0.29659562    -0.00100
C3318       C  0.98846315  0.70014437  0.31771479    -0.08500
C3319       C  0.98293179  0.72097019  0.29352810     0.61900
H3320       H  0.00922200  0.72625612  0.37707894     0.12500
H3321       H  0.47663016  0.62614837  0.31224756     0.12600
C3322       C  0.49115212  0.62713343  0.40323199     0.62100
F3323       F  0.99491159  0.74551897  0.31725614    -0.23100
F3324       F  0.95527379  0.71147905  0.29267863    -0.20400
F3325       F  0.99304824  0.72572380  0.24752056    -0.20100
F3326       F  0.48058644  0.62606611  0.44816770    -0.20100
F3327       F  0.51685445  0.63029445  0.40701524    -0.20500
F3328       F  0.47495892  0.60234457  0.38189765    -0.23100
C3329       C  0.84473870  0.51327162  0.21385251    -0.06000
C3330       C  0.87235929  0.52419653  0.20191200     0.00000
C3331       C  0.88518050  0.50839278  0.21135416    -0.08600
C3332       C  0.86743280  0.98146496  0.24348645    -0.06000
C3333       C  0.84041198  0.97206404  0.25697263    -0.00100
C3334       C  0.82641595  0.98507503  0.23871441    -0.08500
C3335       C  0.79687200  0.97498274  0.25135459     0.61900
H3336       H  0.83494193  0.52517977  0.20629533     0.12500
H3337       H  0.87787821  0.97116795  0.25720049     0.12600
C3338       C  0.91417038  0.51758661  0.19579763     0.62100
F3339       F  0.78710520  0.99066670  0.23048668    -0.23100
F3340       F  0.79391405  0.97568591  0.30008695    -0.20400
F3341       F  0.78133664  0.94861438  0.23571950    -0.20100
F3342       F  0.93214525  0.53765660  0.22572409    -0.20100
F3343       F  0.91825819  0.52739986  0.14964548    -0.20500
F3344       F  0.91980265  0.49636099  0.19694468    -0.23100
C3345       C  0.92638253  0.63329740  0.39249729    -0.06000
C3346       C  0.91996820  0.61034940  0.36479496     0.00000
C3347       C  0.91423843  0.58563750  0.38748558    -0.08600
C3348       C  0.91140578  0.58406766  0.43747072    -0.06000
C3349       C  0.91551910  0.60669500  0.46430967    -0.00100
C3350       C  0.92502897  0.63201767  0.44192254    -0.08500
C3351       C  0.93307069  0.65766959  0.46960887     0.61900
H3352       H  0.93228727  0.65255040  0.37508568     0.12500
H3353       H  0.90486987  0.56494901  0.45577352     0.12600
C3354       C  0.91062506  0.56111523  0.35958758     0.62100
F3355       F  0.95084176  0.68017215  0.44324212    -0.23100
F3356       F  0.94607848  0.65770496  0.51115609    -0.20400
F3357       F  0.91014898  0.65953423  0.48024387    -0.20100
F3358       F  0.89054921  0.55401950  0.32593321    -0.20100
F3359       F  0.90354349  0.53889117  0.38886630    -0.20500
F3360       F  0.93470587  0.56710805  0.33699630    -0.23100
loop_ 
_geom_bond_atom_site_label_1 
_geom_bond_atom_site_label_2 
_geom_bond_distance 
_geom_bond_site_symmetry_2 
_ccdc_geom_bond_type 
Fe1          O17   2.053       .  S
Fe1           O7   2.068       .  S
Fe1          O14   2.049       .  S
Fe1           O6   2.067       .  S
Fe1          O12   1.993       .  S
Fe2           O5   2.090       .  S
Fe2           O9   2.098       .  S
Fe2          O13   2.085       .  S
Fe2          O18   2.095       .  S
Fe2          O12   1.975       .  S
Fe3          O21   2.040       .  S
Fe3           O8   2.040       .  S
Fe3          O15   2.035       .  S
Fe3           O4   2.032       .  S
Fe3          O12   1.963       .  S
O4           C11   1.268       .  A
O5           C19   1.272       .  A
O6           C11   1.269       .  A
O7           C10   1.265       .  A
O8           C20   1.264       .  A
O9           C22   1.278       .  A
C10          O15   1.258       .  A
C10         C797   1.490       .  S
C11         C826   1.477       .  S
O13          C16   1.270       .  A
O14          C16   1.261       .  A
C16         C810   1.494       .  S
O17          C22   1.271       .  A
O18          C20   1.276       .  A
C19          O21   1.261       .  A
C19         C762   1.486       .  S
C20         C746   1.487       .  S
C22         C778   1.478       .  S
Fe23         O39   2.071       .  S
Fe23         O29   2.044       .  S
Fe23         O36   2.044       .  S
Fe23         O28   2.078       .  S
Fe23         O34   1.942       .  S
Fe24         O27   2.109       .  S
Fe24         O31   2.091       .  S
Fe24         O35   2.118       .  S
Fe24         O40   2.070       .  S
Fe24         O34   1.944       .  S
Fe25         O43   2.044       .  S
Fe25         O30   2.053       .  S
Fe25         O37   2.060       .  S
Fe25         O26   2.049       .  S
Fe25         O34   1.952       .  S
O26          C33   1.270       .  A
O27          C41   1.282       .  A
O28          C33   1.271       .  A
O29          C32   1.262       .  A
O30          C42   1.265       .  A
O31          C44   1.274       .  A
C32          O37   1.263       .  A
C32         C682   1.462       .  S
C33         C730   1.460       .  S
O35          C38   1.279       .  A
O36          C38   1.267       .  A
C38         C714   1.502       .  S
O39          C44   1.270       .  A
O40          C42   1.268       .  A
C41          O43   1.267       .  A
C41         C669   1.504       .  S
C42         C653   1.475       .  S
C44         C698   1.489       .  S
Fe45         O61   2.071       .  S
Fe45         O51   2.043       .  S
Fe45         O58   2.035       .  S
Fe45         O50   2.071       .  S
Fe45         O56   1.942       .  S
Fe46         O49   2.120       .  S
Fe46         O53   2.088       .  S
Fe46         O57   2.120       .  S
Fe46         O62   2.077       .  S
Fe46         O56   1.941       .  S
Fe47         O65   2.054       .  S
Fe47         O52   2.049       .  S
Fe47         O59   2.052       .  S
Fe47         O48   2.051       .  S
Fe47         O56   1.955       .  S
O48          C55   1.271       .  A
O49          C63   1.285       .  A
O50          C55   1.270       .  A
O51          C54   1.259       .  A
O52          C64   1.263       .  A
O53          C66   1.276       .  A
C54          O59   1.263       .  A
C54         C685   1.476       .  S
C55         C621   1.454       .  S
O57          C60   1.278       .  A
O58          C60   1.263       .  A
C60         C602   1.500       .  S
O61          C66   1.272       .  A
O62          C64   1.268       .  A
C63          O65   1.270       .  A
C63         C586   1.511       .  S
C64         C573   1.478       .  S
C66         C637   1.486       .  S
Fe67         O83   2.052       .  S
Fe67         O73   2.070       .  S
Fe67         O80   2.071       .  S
Fe67         O72   2.060       .  S
Fe67         O78   1.952       .  S
Fe68         O71   2.082       .  S
Fe68         O75   2.125       .  S
Fe68         O79   2.087       .  S
Fe68         O84   2.105       .  S
Fe68         O78   1.951       .  S
Fe69         O87   2.047       .  S
Fe69         O74   2.029       .  S
Fe69         O81   2.054       .  S
Fe69         O70   2.053       .  S
Fe69         O78   1.948       .  S
O70          C77   1.273       .  A
O71          C85   1.273       .  A
O72          C77   1.272       .  A
O73          C76   1.268       .  A
O74          C86   1.263       .  A
O75          C88   1.286       .  A
C76          O81   1.259       .  A
C76         C522   1.474       .  S
C77         C554   1.475       .  S
O79          C82   1.269       .  A
O80          C82   1.262       .  A
C82         C538   1.509       .  S
O83          C88   1.274       .  A
O84          C86   1.276       .  A
C85          O87   1.266       .  A
C85         C509   1.472       .  S
C86         C650   1.481       .  S
C88         C605   1.485       .  S
Fe89        O105   2.072       .  S
Fe89         O95   2.059       .  S
Fe89        O102   2.054       .  S
Fe89         O94   2.079       .  S
Fe89        O100   1.964       .  S
Fe90         O93   2.110       .  S
Fe90         O97   2.078       .  S
Fe90        O101   2.117       .  S
Fe90        O106   2.074       .  S
Fe90        O100   1.962       .  S
Fe91        O109   2.051       .  S
Fe91         O96   2.050       .  S
Fe91        O103   2.061       .  S
Fe91         O92   2.041       .  S
Fe91        O100   1.953       .  S
O92          C99   1.263       .  A
O93         C107   1.280       .  A
O94          C99   1.272       .  A
O95          C98   1.269       .  A
O96         C108   1.264       .  A
O97         C110   1.270       .  A
C98         O103   1.268       .  A
C98         C477   1.476       .  S
C99         C461   1.482       .  S
O101        C104   1.280       .  A
O102        C104   1.270       .  A
C104        C442   1.500       .  S
O105        C110   1.269       .  A
O106        C108   1.269       .  A
C107        O109   1.268       .  A
C107        C589   1.489       .  S
C108        C749   1.470       .  S
C110        C490   1.481       .  S
Fe111       O127   2.069       .  S
Fe111       O117   2.073       .  S
Fe111       O124   2.075       .  S
Fe111       O116   2.071       .  S
Fe111       O122   1.962       .  S
Fe112       O115   2.076       .  S
Fe112       O119   2.125       .  S
Fe112       O123   2.082       .  S
Fe112       O128   2.100       .  S
Fe112       O122   1.955       .  S
Fe113       O131   2.062       .  S
Fe113       O118   2.038       .  S
Fe113       O125   2.059       .  S
Fe113       O114   2.048       .  S
Fe113       O122   1.944       .  S
O114        C121   1.272       .  A
O115        C129   1.274       .  A
O116        C121   1.275       .  A
O117        C120   1.267       .  A
O118        C130   1.264       .  A
O119        C132   1.285       .  A
C120        O125   1.265       .  A
C120        C429   1.480       .  S
C121        C458   1.475   1_556  S
O123        C126   1.266       .  A
O124        C126   1.265       .  A
C126        C410   1.503       .  S
O127        C132   1.277       .  A
O128        C130   1.276       .  A
C129        O131   1.267       .  A
C129        C394   1.497       .  S
C130        C381   1.479       .  S
C132        C541   1.493       .  S
Fe133       O149   2.074       .  S
Fe133       O139   2.054       .  S
Fe133       O146   2.054       .  S
Fe133       O138   2.083       .  S
Fe133       O144   1.952       .  S
Fe134       O137   2.085       .  S
Fe134       O141   2.092       .  S
Fe134       O145   2.103       .  S
Fe134       O150   2.063       .  S
Fe134       O144   1.959       .  S
Fe135       O153   2.045       .  S
Fe135       O140   2.059       .  S
Fe135       O147   2.069       .  S
Fe135       O136   2.041       .  S
Fe135       O144   1.954       .  S
O136        C143   1.265       .  A
O137        C151   1.271       .  A
O138        C143   1.270       .  A
O139        C142   1.264       .  A
O140        C152   1.268       .  A
O141        C154   1.275       .  A
C142        O147   1.269       .  A
C142        C794   1.488       .  S
C143        C346   1.474       .  S
O145        C148   1.275       .  A
O146        C148   1.268       .  A
C148        C493   1.490       .  S
O149        C154   1.271       .  A
O150        C152   1.272       .  A
C151        O153   1.265       .  A
C151        C506   1.469       .  S
C152        C330   1.477       .  S
C154        C362   1.494       .  S
Fe155       O171   2.057       .  S
Fe155       O161   2.054       .  S
Fe155       O168   2.066       .  S
Fe155       O160   2.059       .  S
Fe155       O166   1.962       .  S
Fe156       O159   2.073       .  S
Fe156       O163   2.091       .  S
Fe156       O167   2.083       .  S
Fe156       O172   2.083       .  S
Fe156       O166   1.970       .  S
Fe157       O175   2.068       .  S
Fe157       O162   2.051       .  S
Fe157       O169   2.055       .  S
Fe157       O158   2.061       .  S
Fe157       O166   1.965       .  S
O158        C165   1.269       .  A
O159        C173   1.273       .  A
O160        C165   1.269       .  A
O161        C164   1.266       .  A
O162        C174   1.266       .  A
O163        C176   1.273       .  A
C164        O169   1.264       .  A
C164        C314   1.468       .  S
C165        C733   1.463       .  S
O167        C170   1.272       .  A
O168        C170   1.266       .  A
C170        C634   1.496       .  S
O171        C176   1.269       .  A
O172        C174   1.272       .  A
C173        O175   1.267       .  A
C173        C301   1.501       .  S
C174        C333   1.477       .  S
C176        C813   1.477       .  S
Fe177       O193   2.055   1_554  S
Fe177       O183   2.068       .  S
Fe177       O190   2.070       .  S
Fe177       O182   2.054       .  S
Fe177       O188   1.967       .  S
Fe178       O181   2.068       .  S
Fe178       O185   2.116       .  S
Fe178       O189   2.068       .  S
Fe178       O194   2.107   1_556  S
Fe178       O188   1.964   1_556  S
Fe179       O197   2.061       .  S
Fe179       O184   2.026       .  S
Fe179       O191   2.037       .  S
Fe179       O180   2.062       .  S
Fe179       O188   1.958       .  S
O180        C187   1.272       .  A
O181        C195   1.271       .  A
O182        C187   1.269       .  A
O183        C186   1.266       .  A
O184        C196   1.263       .  A
O185        C198   1.281       .  A
C186        O191   1.259       .  A
C186        C474   1.461       .  S
C187        C349   1.464       .  S
O189        C192   1.265   1_556  A
O190        C192   1.268       .  A
C192        C781   1.501       .  S
O193        C198   1.272       .  A
O194        C196   1.277       .  A
C195        O197   1.266   1_556  A
C195        C666   1.485       .  S
C196        C285   1.489       .  S
C198        C413   1.484       .  S
Fe199       O215   2.075       .  S
Fe199       O205   2.057       .  S
Fe199       O212   2.051       .  S
Fe199       O204   2.081       .  S
Fe199       O210   1.948       .  S
Fe200       O203   2.113       .  S
Fe200       O207   2.075       .  S
Fe200       O211   2.106       .  S
Fe200       O216   2.078       .  S
Fe200       O210   1.948       .  S
Fe201       O219   2.042       .  S
Fe201       O206   2.052       .  S
Fe201       O213   2.059       .  S
Fe201       O202   2.034       .  S
Fe201       O210   1.945       .  S
O202        C209   1.264       .  A
O203        C217   1.281       .  A
O204        C209   1.274       .  A
O205        C208   1.267       .  A
O206        C218   1.264       .  A
O207        C220   1.272       .  A
C208        O213   1.266       .  A
C208        C426   1.477       .  S
C209        C557   1.475   1_554  S
O211        C214   1.278       .  A
O212        C214   1.266       .  A
C214        C266   1.495       .  S
O215        C220   1.272       .  A
O216        C218   1.268       .  A
C217        O219   1.268       .  A
C217        C298   1.484       .  S
C218        C282   1.475       .  S
C220        C445   1.482       .  S
Fe221       O237   2.048       .  S
Fe221       O227   2.087       .  S
Fe221       O234   2.084       .  S
Fe221       O226   2.045       .  S
Fe221       O232   1.958       .  S
Fe222       O225   2.075       .  S
Fe222       O229   2.116       .  S
Fe222       O233   2.068       .  S
Fe222       O238   2.102       .  S
Fe222       O232   1.954       .  S
Fe223       O241   2.071       .  S
Fe223       O228   2.038       .  S
Fe223       O235   2.045       .  S
Fe223       O224   2.070       .  S
Fe223       O232   1.947       .  S
O224        C231   1.270       .  A
O225        C239   1.274       .  A
O226        C231   1.264       .  A
O227        C230   1.274       .  A
O228        C240   1.266       .  A
O229        C242   1.280       .  A
C230        O235   1.264       .  A
C230        C317   1.468       .  S
C231        C829   1.461       .  S
O233        C236   1.266       .  A
O234        C236   1.273       .  A
C236        C365   1.504       .  S
O237        C242   1.269       .  A
O238        C240   1.276       .  A
C239        O241   1.267       .  A
C239        C397   1.498       .  S
C240        C570   1.483       .  S
C242        C717   1.485       .  S
Fe243       O259   2.043   1_556  S
Fe243       O249   2.068       .  S
Fe243       O256   2.057       .  S
Fe243       O248   2.054       .  S
Fe243       O254   1.970       .  S
Fe244       O247   2.083       .  S
Fe244       O251   2.115       .  S
Fe244       O255   2.078       .  S
Fe244       O260   2.114   1_554  S
Fe244       O254   1.974   1_554  S
Fe245       O263   2.047       .  S
Fe245       O250   2.028       .  S
Fe245       O257   2.040       .  S
Fe245       O246   2.058       .  S
Fe245       O254   1.966       .  S
O246        C253   1.267       .  A
O247        C261   1.269       .  A
O248        C253   1.265       .  A
O249        C252   1.270       .  A
O250        C262   1.268       .  A
O251        C264   1.283       .  A
C252        O257   1.262       .  A
C252        C525   1.468       .  S
C253        C618   1.458       .  S
O255        C258   1.267   1_554  A
O256        C258   1.263       .  A
C258        C701   1.493       .  S
O259        C264   1.270       .  A
O260        C262   1.279       .  A
C261        O263   1.261   1_554  A
C261        C765   1.476       .  S
C262        C378   1.502       .  S
C264        C269   1.484       .  S
C265        C270   1.413       .  A
C265       C1946   1.407       .  A
C265       H1952   1.083       .  S
C266        C267   1.423       .  A
C266       C1945   1.407       .  A
C267       C1948   1.410   1_455  A
C267        C274   1.521       .  S
C268        C269   1.403       .  A
C268       C1947   1.407       .  A
C268        H273   1.084       .  S
C269        C270   1.416       .  A
C270        C271   1.515       .  S
C271        F275   1.384       .  S
C271        F276   1.383       .  S
C271        F277   1.383       .  S
H272       C1945   1.083       .  S
C274        F278   1.382       .  S
C274        F279   1.383       .  S
C274        F280   1.385       .  S
C281        C282   1.406       .  A
C281        C286   1.410       .  A
C281        H288   1.083       .  S
C282        C283   1.408       .  A
C283        C284   1.407       .  A
C283        C290   1.517       .  S
C284        C285   1.413       .  A
C284        H289   1.083       .  S
C285        C286   1.417       .  A
C286        C287   1.517   1_554  S
C287        F291   1.384       .  S
C287        F292   1.384       .  S
C287        F293   1.383       .  S
C290        F294   1.383       .  S
C290        F295   1.384       .  S
C290        F296   1.381       .  S
C297        C298   1.400       .  A
C297        C302   1.412       .  A
C297        H304   1.083       .  S
C298        C299   1.419       .  A
C299        C300   1.406       .  A
C299        C306   1.522       .  S
C300        C301   1.407       .  A
C300        H305   1.082       .  S
C301        C302   1.430       .  A
C302        C303   1.522       .  S
C303        F307   1.385       .  S
C303        F308   1.383       .  S
C303        F309   1.383       .  S
C306        F310   1.383       .  S
C306        F311   1.383       .  S
C306        F312   1.385       .  S
C313        C314   1.410       .  A
C313       C1158   1.409       .  A
C313        H320   1.084       .  S
C314       C1155   1.410       .  A
C315        C316   1.400       .  A
C315       C1154   1.411   1_545  A
C315        C322   1.516       .  S
C316        C317   1.401       .  A
C316        H321   1.083       .  S
C317        C318   1.407       .  A
C318       C1153   1.412   1_545  A
C318       C1159   1.514       .  S
C319       C1158   1.513       .  S
C319        F323   1.384       .  S
C319       F1164   1.383       .  S
C319       F1165   1.381       .  S
C322        F326   1.383       .  S
C322        F327   1.380       .  S
C322        F328   1.382       .  S
F324       C1159   1.383       .  S
F325       C1159   1.381       .  S
C329        C330   1.399       .  A
C329        C334   1.403       .  A
C329        H336   1.083       .  S
C330        C331   1.421       .  A
C331        C332   1.402       .  A
C331        C338   1.516       .  S
C332        C333   1.398       .  A
C332        H337   1.084       .  S
C333        C334   1.417       .  A
C334        C335   1.507       .  S
C335        F339   1.383       .  S
C335        F340   1.385       .  S
C335        F341   1.382       .  S
C338        F342   1.382       .  S
C338        F343   1.383       .  S
C338        F344   1.385       .  S
C345        C346   1.404       .  A
C345        C350   1.408       .  A
C345        H352   1.083       .  S
C346        C347   1.419       .  A
C347        C348   1.394       .  A
C347        C354   1.515       .  S
C348        C349   1.395       .  A
C348        H353   1.085       .  S
C349        C350   1.415       .  A
C350        C351   1.517       .  S
C351        F355   1.384       .  S
C351        F356   1.381       .  S
C351        F357   1.383       .  S
C354        F358   1.381       .  S
C354        F359   1.373       .  S
C354        F360   1.383       .  S
C361        C362   1.403       .  A
C361        C366   1.416   1_455  A
C361        H368   1.083       .  S
C362        C363   1.416       .  A
C363       C2044   1.408   1_455  A
C363        C370   1.515       .  S
C364        C365   1.409       .  A
C364       C2043   1.408       .  A
C364        H369   1.083       .  S
C365       C2046   1.431       .  A
C366       C2045   1.434       .  A
C366        C367   1.522       .  S
C367        F371   1.385   1_655  S
C367       F2052   1.384       .  S
C367       F2053   1.383       .  S
C370        F374   1.384       .  S
C370        F375   1.382       .  S
C370       F2056   1.384       .  S
F372       C2047   1.383       .  S
F373       C2047   1.382       .  S
F376       C2050   1.385       .  S
C377        C378   1.415       .  A
C377        C382   1.401       .  A
C377        H384   1.081       .  S
C378        C379   1.421       .  A
C379        C380   1.414       .  A
C379        C386   1.518   1_556  S
C380        C381   1.409       .  A
C380        H385   1.083       .  S
C381        C382   1.409       .  A
C382        C383   1.521       .  S
C383        F387   1.386       .  S
C383        F388   1.382       .  S
C383        F389   1.383       .  S
C386        F390   1.383   1_554  S
C386        F391   1.381       .  S
C386        F392   1.385       .  S
C393        C394   1.405       .  A
C393        C398   1.410       .  A
C393        H400   1.082       .  S
C394        C395   1.425       .  A
C395        C396   1.409       .  A
C395        C402   1.522       .  S
C396        C397   1.405       .  A
C396        H401   1.083       .  S
C397        C398   1.428       .  A
C398        C399   1.524       .  S
C399        F403   1.385       .  S
C399        F404   1.382       .  S
C399        F405   1.380       .  S
C402        F406   1.383       .  S
C402        F407   1.383       .  S
C402        F408   1.384       .  S
C409        C410   1.411       .  A
C409        C414   1.414       .  A
C409        H416   1.083       .  S
C410        C411   1.427       .  A
C411        C412   1.411       .  A
C411        C418   1.520       .  S
C412        C413   1.400       .  A
C412        H417   1.084       .  S
C413        C414   1.413       .  A
C414        C415   1.516       .  S
C415        F419   1.385       .  S
C415        F420   1.383       .  S
C415        F421   1.383       .  S
C418        F422   1.383       .  S
C418        F423   1.383       .  S
C418        F424   1.385       .  S
C425        C426   1.411   1_556  A
C425       C1270   1.401       .  A
C425        H432   1.080       .  S
C426       C1267   1.412       .  A
C427        C428   1.402       .  A
C427       C1266   1.414   1_545  A
C427       C1274   1.515       .  S
C428        C429   1.406   1_554  A
C428        H433   1.083       .  S
C429        C430   1.408       .  A
C430       C1265   1.412   1_546  A
C430        C431   1.513       .  S
C431        F435   1.383   1_545  S
C431        F436   1.383       .  S
C431        F437   1.383       .  S
C434       C1267   1.516       .  S
C434        F438   1.383       .  S
C434        F439   1.382       .  S
C434       F1280   1.384       .  S
F440       C1274   1.384       .  S
C441        C442   1.409       .  A
C441       C1286   1.407   1_545  A
C441        H448   1.085       .  S
C442        C443   1.424       .  A
C443       C1284   1.414   1_545  A
C443        C450   1.515       .  S
C444        C445   1.403       .  A
C444       C1283   1.412       .  A
C444        H449   1.084       .  S
C445        C446   1.414       .  A
C446       C1281   1.404       .  A
C446        C447   1.516       .  S
C447        F451   1.385       .  S
C447        F452   1.384       .  S
C447        F453   1.383       .  S
C450        F454   1.382       .  S
C450        F455   1.379       .  S
C450        F456   1.384   1_545  S
C457        C458   1.402       .  A
C457        C462   1.398       .  A
C457        H464   1.083       .  S
C458        C459   1.414       .  A
C459        C460   1.408       .  A
C459        C466   1.519       .  S
C460        C461   1.409       .  A
C460        H465   1.082       .  S
C461        C462   1.424       .  A
C462        C463   1.528       .  S
C463        F467   1.380       .  S
C463        F468   1.385       .  S
C463        F469   1.380       .  S
C466        F470   1.383       .  S
C466        F471   1.383       .  S
C466        F472   1.384       .  S
C473        C474   1.406       .  A
C473        C478   1.404       .  A
C473        H480   1.085       .  S
C474        C475   1.401       .  A
C475        C476   1.400       .  A
C475        C482   1.516       .  S
C476        C477   1.412       .  A
C476        H481   1.079       .  S
C477        C478   1.414       .  A
C478        C479   1.516       .  S
C479        F483   1.383       .  S
C479        F484   1.382       .  S
C479        F485   1.383       .  S
C482        F486   1.383       .  S
C482        F487   1.383       .  S
C482        F488   1.382       .  S
C489        C490   1.401       .  A
C489        C494   1.410       .  A
C489        H496   1.084       .  S
C490        C491   1.414       .  A
C491        C492   1.410       .  A
C491        C498   1.515       .  S
C492        C493   1.406       .  A
C492        H497   1.083       .  S
C493        C494   1.422       .  A
C494        C495   1.516       .  S
C495        F499   1.385       .  S
C495        F500   1.382       .  S
C495        F501   1.380       .  S
C498        F502   1.383       .  S
C498        F503   1.382       .  S
C498        F504   1.385       .  S
C505        C506   1.397       .  A
C505        C510   1.403       .  A
C505        H512   1.084       .  S
C506        C507   1.419       .  A
C507        C508   1.407       .  A
C507        C514   1.519       .  S
C508        C509   1.400       .  A
C508        H513   1.083       .  S
C509        C510   1.418       .  A
C510        C511   1.516       .  S
C511        F515   1.385       .  S
C511        F516   1.382       .  S
C511        F517   1.380       .  S
C514        F518   1.382       .  S
C514        F519   1.382       .  S
C514        F520   1.385       .  S
C521        C522   1.404       .  A
C521        C526   1.392       .  A
C521        H528   1.084       .  S
C522       C2203   1.413       .  A
C523        C524   1.409       .  A
C523       C2202   1.411       .  A
C523        C530   1.513       .  S
C524        C525   1.410       .  A
C524        H529   1.085       .  S
C525       C2206   1.407       .  A
C526       C2205   1.407   1_455  A
C526        C527   1.516       .  S
C527        F531   1.384       .  S
C527        F533   1.383       .  S
C527       F2212   1.384       .  S
C530        F534   1.381       .  S
C530        F536   1.384       .  S
C530       F2215   1.382       .  S
F532       C2207   1.383       .  S
F535       C2210   1.381       .  S
C537        C542   1.414       .  A
C537       C1378   1.408   1_545  A
C537        H544   1.083   1_545  S
C538        C539   1.430       .  A
C538       C1377   1.410       .  A
C539       C1380   1.414       .  A
C539        C546   1.519       .  S
C540        C541   1.401       .  A
C540       C1379   1.415       .  A
C540        H545   1.084       .  S
C541        C542   1.417       .  A
C542        C543   1.515       .  S
C543        F547   1.384       .  S
C543        F548   1.383       .  S
C543        F549   1.382       .  S
C546        F550   1.383       .  S
C546        F551   1.383       .  S
C546        F552   1.385       .  S
C553        C554   1.404       .  A
C553        C558   1.396       .  A
C553        H560   1.083       .  S
C554        C555   1.416       .  A
C555        C556   1.404       .  A
C555        C562   1.519       .  S
C556        C557   1.406       .  A
C556        H561   1.083       .  S
C557        C558   1.423       .  A
C558        C559   1.527       .  S
C559        F563   1.384       .  S
C559        F564   1.382       .  S
C559        F565   1.382       .  S
C562        F566   1.384       .  S
C562        F567   1.383       .  S
C562        F568   1.384       .  S
C569        C570   1.408       .  A
C569        C574   1.407       .  A
C569        H576   1.081       .  S
C570        C571   1.413       .  A
C571        C572   1.406       .  A
C571        C578   1.518       .  S
C572        C573   1.408       .  A
C572        H577   1.084       .  S
C573        C574   1.410       .  A
C574        C575   1.515       .  S
C575        F579   1.379       .  S
C575        F580   1.379       .  S
C575        F581   1.383       .  S
C578        F582   1.383       .  S
C578        F583   1.380       .  S
C578        F584   1.385       .  S
C585        C586   1.410       .  A
C585        C590   1.409       .  A
C585        H592   1.082       .  S
C586        C587   1.434       .  A
C587        C588   1.414       .  A
C587        C594   1.522       .  S
C588        C589   1.399       .  A
C588        H593   1.083       .  S
C589        C590   1.418       .  A
C590        C591   1.521       .  S
C591        F595   1.385       .  S
C591        F596   1.382       .  S
C591        F597   1.383       .  S
C594        F598   1.384       .  S
C594        F599   1.383       .  S
C594        F600   1.385       .  S
C601        C602   1.410       .  A
C601       C2286   1.409       .  A
C601        H608   1.083       .  S
C602        C603   1.422       .  A
C603       C2284   1.412       .  A
C603        C610   1.511       .  S
C604        C605   1.401       .  A
C604       C2283   1.414   1_455  A
C604        H609   1.082       .  S
C605        C606   1.412       .  A
C606       C2281   1.409   1_455  A
C606        C607   1.516       .  S
C607        F612   1.383       .  S
C607        F613   1.383       .  S
C607       F2291   1.385       .  S
C610        F614   1.383       .  S
C610        F615   1.380       .  S
C610       F2296   1.385       .  S
F611       C2287   1.384       .  S
F616       C2290   1.385   1_455  S
C617        C618   1.403       .  A
C617        C622   1.402       .  A
C617        H624   1.084       .  S
C618        C619   1.411       .  A
C619        C620   1.400       .  A
C619        C626   1.517       .  S
C620        C621   1.401       .  A
C620        H625   1.084       .  S
C621        C622   1.408       .  A
C622        C623   1.516       .  S
C623        F627   1.384       .  S
C623        F628   1.383       .  S
C623        F629   1.383       .  S
C626        F630   1.383       .  S
C626        F631   1.379       .  S
C626        F632   1.384       .  S
C633        C634   1.405       .  A
C633        C638   1.409       .  A
C633        H640   1.083       .  S
C634        C635   1.424       .  A
C635        C636   1.412       .  A
C635        C642   1.519       .  S
C636        C637   1.403       .  A
C636        H641   1.084       .  S
C637        C638   1.418       .  A
C638        C639   1.519       .  S
C639        F643   1.384       .  S
C639        F644   1.383       .  S
C639        F645   1.382       .  S
C642        F646   1.383       .  S
C642        F647   1.384       .  S
C642        F648   1.385       .  S
C649        C650   1.411       .  A
C649        C654   1.408       .  A
C649        H656   1.084       .  S
C650        C651   1.413       .  A
C651        C652   1.406       .  A
C651        C658   1.516       .  S
C652        C653   1.406       .  A
C652        H657   1.083       .  S
C653        C654   1.409       .  A
C654        C655   1.517       .  S
C655        F659   1.383       .  S
C655        F660   1.383       .  S
C655        F661   1.384       .  S
C658        F662   1.383       .  S
C658        F663   1.382       .  S
C658        F664   1.385       .  S
C665        C666   1.399       .  A
C665        C670   1.408       .  A
C665        H672   1.083       .  S
C666        C667   1.418       .  A
C667        C668   1.409       .  A
C667        C674   1.522   1_556  S
C668        C669   1.411       .  A
C668        H673   1.082       .  S
C669        C670   1.432       .  A
C670        C671   1.524       .  S
C671        F675   1.385       .  S
C671        F676   1.384       .  S
C671        F677   1.383       .  S
C674        F678   1.383       .  S
C674        F679   1.383       .  S
C674        F680   1.385       .  S
C681        C682   1.398       .  A
C681        C686   1.397       .  A
C681        H688   1.082       .  S
C682        C683   1.407       .  A
C683        C684   1.405       .  A
C683        C690   1.517       .  S
C684        C685   1.412       .  A
C684        H689   1.083       .  S
C685        C686   1.425       .  A
C686        C687   1.528       .  S
C687        F691   1.385       .  S
C687        F692   1.376       .  S
C687        F693   1.376       .  S
C690        F694   1.382       .  S
C690        F695   1.384       .  S
C690        F696   1.384       .  S
C697        C698   1.405       .  A
C697        C702   1.409       .  A
C697        H704   1.084       .  S
C698        C699   1.421       .  A
C699        C700   1.412       .  A
C699        C706   1.518       .  S
C700        C701   1.405       .  A
C700        H705   1.083       .  S
C701        C702   1.419       .  A
C702        C703   1.516       .  S
C703        F707   1.385       .  S
C703        F708   1.382       .  S
C703        F709   1.385   1_556  S
C706        F710   1.383       .  S
C706        F711   1.382       .  S
C706        F712   1.385       .  S
C713        C718   1.409   1_565  A
C713       C1554   1.410       .  A
C713       H1560   1.083       .  S
C714        C715   1.426       .  A
C714       C1553   1.409       .  A
C715       C1556   1.416       .  A
C715        C722   1.515       .  S
C716        C717   1.400       .  A
C716       C1555   1.415       .  A
C716        H721   1.083       .  S
C717        C718   1.415       .  A
C718        C719   1.519       .  S
C719        F723   1.385       .  S
C719        F724   1.383       .  S
C719        F725   1.382       .  S
H720       C1553   1.083       .  S
C722        F726   1.383       .  S
C722        F727   1.379       .  S
C722        F728   1.384       .  S
C729        C730   1.405       .  A
C729        C734   1.405       .  A
C729        H736   1.082       .  S
C730        C731   1.412       .  A
C731        C732   1.400       .  A
C731        C738   1.518       .  S
C732        C733   1.402       .  A
C732        H737   1.085       .  S
C733        C734   1.409       .  A
C734        C735   1.517       .  S
C735        F739   1.384       .  S
C735        F740   1.382       .  S
C735        F741   1.374       .  S
C738        F742   1.381       .  S
C738        F743   1.380       .  S
C738        F744   1.383       .  S
C745        C746   1.401       .  A
C745        C750   1.406       .  A
C745        H752   1.084       .  S
C746        C747   1.425       .  A
C747        C748   1.404       .  A
C747        C754   1.518       .  S
C748        C749   1.397       .  A
C748        H753   1.084       .  S
C749        C750   1.419       .  A
C750        C751   1.516       .  S
C751        F755   1.383       .  S
C751        F756   1.381       .  S
C751        F757   1.381       .  S
C754        F758   1.383       .  S
C754        F759   1.383       .  S
C754        F760   1.385       .  S
C761        C762   1.405       .  A
C761        C766   1.408       .  A
C761        H768   1.076       .  S
C762        C763   1.424       .  A
C763        C764   1.410       .  A
C763        C770   1.521       .  S
C764        C765   1.400       .  A
C764        H769   1.069       .  S
C765        C766   1.414       .  A
C766        C767   1.517       .  S
C767        F771   1.384       .  S
C767        F772   1.383   1_554  S
C767        F773   1.381       .  S
C770        F774   1.384       .  S
C770        F775   1.383       .  S
C770        F776   1.385       .  S
C777        C778   1.402       .  A
C777       C2462   1.413       .  A
C777        H784   1.083       .  S
C778        C779   1.412       .  A
C779       C2460   1.406       .  A
C779        C786   1.515       .  S
C780        C781   1.411   1_655  A
C780       C2459   1.407       .  A
C780        H785   1.083   1_655  S
C781        C782   1.429   1_455  A
C782       C2457   1.411       .  A
C782        C783   1.521   1_655  S
C783        F788   1.383   1_554  S
C783        F789   1.383       .  S
C783       F2467   1.385   1_455  S
C786        F790   1.382       .  S
C786        F791   1.383       .  S
C786       F2472   1.383       .  S
F787       C2463   1.385       .  S
F792       C2466   1.384       .  S
C793        C798   1.410       .  A
C793       C2474   1.409       .  A
C793        H800   1.083       .  S
C794        C795   1.419   1_455  A
C794       C2473   1.411   1_455  A
C795        C796   1.399       .  A
C795        C802   1.523       .  S
C796       C2477   1.406       .  A
C796        H801   1.081       .  S
C797        C798   1.420       .  A
C797       C2476   1.407       .  A
C798        C799   1.519       .  S
C799        F803   1.384       .  S
C799        F804   1.383       .  S
C799        F805   1.383       .  S
C802        F806   1.384       .  S
C802        F807   1.380   1_655  S
C802        F808   1.384       .  S
C809        C810   1.406       .  A
C809       C1654   1.410   1_545  A
C809        H816   1.083       .  S
C810        C811   1.423       .  A
C811       C1652   1.411   1_545  A
C811        C818   1.516       .  S
C812        C813   1.398       .  A
C812       C1651   1.407       .  A
C812        H817   1.084       .  S
C813        C814   1.415       .  A
C814       C1649   1.410       .  A
C814        C815   1.517       .  S
C815        F819   1.385       .  S
C815        F820   1.383       .  S
C815        F821   1.383       .  S
C818        F822   1.383       .  S
C818        F823   1.383       .  S
C818        F824   1.385   1_545  S
C825        C826   1.404       .  A
C825        C830   1.388       .  A
C825        H832   1.082       .  S
C826        C827   1.417       .  A
C827        C828   1.412       .  A
C827        C834   1.518       .  S
C828        C829   1.406       .  A
C828        H833   1.083       .  S
C829        C830   1.404       .  A
C830        C831   1.513       .  S
C831        F835   1.383       .  S
C831        F836   1.383       .  S
C831        F837   1.381       .  S
C834        F838   1.383       .  S
C834        F839   1.385       .  S
C834        F840   1.383       .  S
Fe841       O857   2.047       .  S
Fe841       O847   2.063       .  S
Fe841       O854   2.042       .  S
Fe841       O846   2.062       .  S
Fe841       O852   1.993       .  S
Fe842       O845   2.087       .  S
Fe842       O849   2.106       .  S
Fe842       O853   2.089       .  S
Fe842       O858   2.101       .  S
Fe842       O852   1.976       .  S
Fe843       O861   2.053       .  S
Fe843       O848   2.045       .  S
Fe843       O855   2.039       .  S
Fe843       O844   2.042       .  S
Fe843       O852   1.968       .  S
O844        C851   1.269       .  A
O845        C859   1.272       .  A
O846        C851   1.268       .  A
O847        C850   1.264       .  A
O848        C860   1.266       .  A
O849        C862   1.280       .  A
C850        O855   1.260       .  A
C850       C1637   1.490       .  S
C851       C1666   1.477       .  S
O853        C856   1.270       .  A
O854        C856   1.260       .  A
C856       C1650   1.492       .  S
O857        C862   1.269       .  A
O858        C860   1.278       .  A
C859        O861   1.263       .  A
C859       C1602   1.495       .  S
C860       C1586   1.491       .  S
C862       C1618   1.482       .  S
Fe863       O879   2.069       .  S
Fe863       O869   2.044       .  S
Fe863       O876   2.051       .  S
Fe863       O868   2.084       .  S
Fe863       O874   1.941       .  S
Fe864       O867   2.100       .  S
Fe864       O871   2.104       .  S
Fe864       O875   2.122       .  S
Fe864       O880   2.082       .  S
Fe864       O874   1.943       .  S
Fe865       O883   2.040       .  S
Fe865       O870   2.057       .  S
Fe865       O877   2.055       .  S
Fe865       O866   2.045       .  S
Fe865       O874   1.954       .  S
O866        C873   1.271       .  A
O867        C881   1.279       .  A
O868        C873   1.272       .  A
O869        C872   1.262       .  A
O870        C882   1.267       .  A
O871        C884   1.275       .  A
C872        O877   1.262       .  A
C872       C1522   1.459       .  S
C873       C1570   1.461       .  S
O875        C878   1.280       .  A
O876        C878   1.270       .  A
C878       C1554   1.506       .  S
O879        C884   1.269       .  A
O880        C882   1.271       .  A
C881        O883   1.265       .  A
C881       C1509   1.498       .  S
C882       C1493   1.484       .  S
C884       C1538   1.499       .  S
Fe885       O901   2.072       .  S
Fe885       O891   2.040       .  S
Fe885       O898   2.038       .  S
Fe885       O890   2.071       .  S
Fe885       O896   1.948       .  S
Fe886       O889   2.100       .  S
Fe886       O893   2.109       .  S
Fe886       O897   2.114       .  S
Fe886       O902   2.087       .  S
Fe886       O896   1.947       .  S
Fe887       O905   2.051       .  S
Fe887       O892   2.056       .  S
Fe887       O899   2.052       .  S
Fe887       O888   2.047       .  S
Fe887       O896   1.956       .  S
O888        C895   1.271       .  A
O889        C903   1.281       .  A
O890        C895   1.269       .  A
O891        C894   1.258       .  A
O892        C904   1.264       .  A
O893        C906   1.279       .  A
C894        O899   1.263       .  A
C894       C1525   1.475       .  S
C895       C1461   1.454       .  S
O897        C900   1.276       .  A
O898        C900   1.264       .  A
C900       C1442   1.496       .  S
O901        C906   1.272       .  A
O902        C904   1.270       .  A
C903        O905   1.268       .  A
C903       C1426   1.502       .  S
C904       C1413   1.489       .  S
C906       C1477   1.501       .  S
Fe907       O923   2.047       .  S
Fe907       O913   2.074       .  S
Fe907       O920   2.071       .  S
Fe907       O912   2.056       .  S
Fe907       O918   1.957       .  S
Fe908       O911   2.090       .  S
Fe908       O915   2.117       .  S
Fe908       O919   2.095       .  S
Fe908       O924   2.099       .  S
Fe908       O918   1.952       .  S
Fe909       O927   2.055       .  S
Fe909       O914   2.034       .  S
Fe909       O921   2.052       .  S
Fe909       O910   2.059       .  S
Fe909       O918   1.945       .  S
O910        C917   1.275       .  A
O911        C925   1.276       .  A
O912        C917   1.271       .  A
O913        C916   1.268       .  A
O914        C926   1.264       .  A
O915        C928   1.283       .  A
C916        O921   1.260       .  A
C916       C1362   1.475       .  S
C917       C1394   1.472       .  S
O919        C922   1.271       .  A
O920        C922   1.263       .  A
C922       C1378   1.508       .  S
O923        C928   1.273       .  A
O924        C926   1.274       .  A
C925        O927   1.267       .  A
C925       C1349   1.483       .  S
C926       C1490   1.481       .  S
C928       C1445   1.478       .  S
Fe929       O945   2.063       .  S
Fe929       O935   2.054       .  S
Fe929       O942   2.045       .  S
Fe929       O934   2.070       .  S
Fe929       O940   1.958       .  S
Fe930       O933   2.097       .  S
Fe930       O937   2.096       .  S
Fe930       O941   2.105       .  S
Fe930       O946   2.088       .  S
Fe930       O940   1.964       .  S
Fe931       O949   2.046       .  S
Fe931       O936   2.050       .  S
Fe931       O943   2.069       .  S
Fe931       O932   2.037       .  S
Fe931       O940   1.957       .  S
O932        C939   1.263       .  A
O933        C947   1.279       .  A
O934        C939   1.270       .  A
O935        C938   1.266       .  A
O936        C948   1.263       .  A
O937        C950   1.274       .  A
C938        O943   1.267       .  A
C938       C1317   1.473       .  S
C939       C1301   1.469       .  S
O941        C944   1.277       .  A
O942        C944   1.269       .  A
C944       C1282   1.492       .  S
O945        C950   1.267       .  A
O946        C948   1.271       .  A
C947        O949   1.268       .  A
C947       C1429   1.481       .  S
C948       C1589   1.478       .  S
C950       C1330   1.492       .  S
Fe951       O967   2.058       .  S
Fe951       O957   2.063       .  S
Fe951       O964   2.068       .  S
Fe951       O956   2.062       .  S
Fe951       O962   1.960       .  S
Fe952       O955   2.069       .  S
Fe952       O959   2.121       .  S
Fe952       O963   2.078       .  S
Fe952       O968   2.096       .  S
Fe952       O962   1.954       .  S
Fe953       O971   2.059       .  S
Fe953       O958   2.033       .  S
Fe953       O965   2.047       .  S
Fe953       O954   2.044       .  S
Fe953       O962   1.948       .  S
O954        C961   1.269       .  A
O955        C969   1.271       .  A
O956        C961   1.271       .  A
O957        C960   1.266       .  A
O958        C970   1.264       .  A
O959        C972   1.283       .  A
C960        O965   1.263       .  A
C960       C1269   1.463       .  S
C961       C1298   1.465   1_556  S
O963        C966   1.265       .  A
O964        C966   1.266       .  A
C966       C1250   1.506       .  S
O967        C972   1.273       .  A
O968        C970   1.276       .  A
C969        O971   1.266       .  A
C969       C1234   1.491       .  S
C970       C1221   1.478       .  S
C972       C1381   1.490       .  S
Fe973       O989   2.063       .  S
Fe973       O979   2.052       .  S
Fe973       O986   2.048       .  S
Fe973       O978   2.076       .  S
Fe973       O984   1.947       .  S
Fe974       O977   2.108       .  S
Fe974       O981   2.085       .  S
Fe974       O985   2.113       .  S
Fe974       O990   2.070       .  S
Fe974       O984   1.952       .  S
Fe975       O993   2.051       .  S
Fe975       O980   2.058       .  S
Fe975       O987   2.071       .  S
Fe975       O976   2.048       .  S
Fe975       O984   1.952       .  S
O976        C983   1.266       .  A
O977        C991   1.278       .  A
O978        C983   1.268       .  A
O979        C982   1.262       .  A
O980        C992   1.266       .  A
O981        C994   1.274       .  A
C982        O987   1.267       .  A
C982       C1634   1.486       .  S
C983       C1186   1.468       .  S
O985        C988   1.277       .  A
O986        C988   1.268       .  A
C988       C1333   1.504       .  S
O989        C994   1.269       .  A
O990        C992   1.270       .  A
C991        O993   1.268       .  A
C991       C1346   1.478       .  S
C992       C1170   1.476       .  S
C994       C1202   1.486       .  S
Fe995      O1011   2.058       .  S
Fe995      O1001   2.059       .  S
Fe995      O1008   2.062       .  S
Fe995      O1000   2.053       .  S
Fe995      O1006   1.963       .  S
Fe996       O999   2.085       .  S
Fe996      O1003   2.108       .  S
Fe996      O1007   2.092       .  S
Fe996      O1012   2.089       .  S
Fe996      O1006   1.976       .  S
Fe997      O1015   2.067       .  S
Fe997      O1002   2.048       .  S
Fe997      O1009   2.063       .  S
Fe997       O998   2.057       .  S
Fe997      O1006   1.971       .  S
O998       C1005   1.268       .  A
O999       C1013   1.273       .  A
O1000      C1005   1.267       .  A
O1001      C1004   1.268       .  A
O1002      C1014   1.266       .  A
O1003      C1016   1.278       .  A
C1004      O1009   1.267       .  A
C1004      C1154   1.473       .  S
C1005      C1573   1.462       .  S
O1007      C1010   1.271       .  A
O1008      C1010   1.264       .  A
C1010      C1474   1.508       .  S
O1011      C1016   1.270       .  A
O1012      C1014   1.275       .  A
C1013      O1015   1.267       .  A
C1013      C1141   1.497       .  S
C1014      C1173   1.478       .  S
C1016      C1653   1.484       .  S
Fe1017     O1033   2.059   1_554  S
Fe1017     O1023   2.066       .  S
Fe1017     O1030   2.075       .  S
Fe1017     O1022   2.062       .  S
Fe1017     O1028   1.973       .  S
Fe1018     O1021   2.063       .  S
Fe1018     O1025   2.106       .  S
Fe1018     O1029   2.074       .  S
Fe1018     O1034   2.098   1_556  S
Fe1018     O1028   1.977   1_556  S
Fe1019     O1037   2.051       .  S
Fe1019     O1024   2.033       .  S
Fe1019     O1031   2.038       .  S
Fe1019     O1020   2.037       .  S
Fe1019     O1028   1.966       .  S
O1020      C1027   1.267       .  A
O1021      C1035   1.271       .  A
O1022      C1027   1.268       .  A
O1023      C1026   1.269       .  A
O1024      C1036   1.263       .  A
O1025      C1038   1.276       .  A
C1026      O1031   1.261       .  A
C1026      C1314   1.464       .  S
C1027      C1189   1.466       .  S
O1029      C1032   1.268   1_556  A
O1030      C1032   1.270       .  A
C1032      C1621   1.504       .  S
O1033      C1038   1.269       .  A
O1034      C1036   1.274       .  A
C1035      O1037   1.264   1_556  A
C1035      C1506   1.480       .  S
C1036      C1125   1.485       .  S
C1038      C1253   1.487       .  S
Fe1039     O1055   2.080       .  S
Fe1039     O1045   2.065       .  S
Fe1039     O1052   2.059       .  S
Fe1039     O1044   2.077       .  S
Fe1039     O1050   1.956       .  S
Fe1040     O1043   2.105       .  S
Fe1040     O1047   2.080       .  S
Fe1040     O1051   2.097       .  S
Fe1040     O1056   2.078       .  S
Fe1040     O1050   1.957       .  S
Fe1041     O1059   2.048       .  S
Fe1041     O1046   2.058       .  S
Fe1041     O1053   2.074       .  S
Fe1041     O1042   2.032       .  S
Fe1041     O1050   1.947       .  S
O1042      C1049   1.262       .  A
O1043      C1057   1.278       .  A
O1044      C1049   1.272       .  A
O1045      C1048   1.271       .  A
O1046      C1058   1.267       .  A
O1047      C1060   1.274       .  A
C1048      O1053   1.270       .  A
C1048      C1266   1.493       .  S
C1049      C1397   1.476   1_554  S
O1051      C1054   1.274       .  A
O1052      C1054   1.267       .  A
C1054      C1106   1.493       .  S
O1055      C1060   1.274       .  A
O1056      C1058   1.269       .  A
C1057      O1059   1.268       .  A
C1057      C1138   1.478       .  S
C1058      C1122   1.480       .  S
C1060      C1285   1.485       .  S
Fe1061     O1077   2.051       .  S
Fe1061     O1067   2.081       .  S
Fe1061     O1074   2.091       .  S
Fe1061     O1066   2.044       .  S
Fe1061     O1072   1.959       .  S
Fe1062     O1065   2.061       .  S
Fe1062     O1069   2.112       .  S
Fe1062     O1073   2.065       .  S
Fe1062     O1078   2.108       .  S
Fe1062     O1072   1.956       .  S
Fe1063     O1081   2.079       .  S
Fe1063     O1068   2.038       .  S
Fe1063     O1075   2.042       .  S
Fe1063     O1064   2.075       .  S
Fe1063     O1072   1.949       .  S
O1064      C1071   1.272       .  A
O1065      C1079   1.272       .  A
O1066      C1071   1.265       .  A
O1067      C1070   1.273       .  A
O1068      C1080   1.265       .  A
O1069      C1082   1.278       .  A
C1070      O1075   1.262       .  A
C1070      C1157   1.463       .  S
C1071      C1669   1.464       .  S
O1073      C1076   1.267       .  A
O1074      C1076   1.275       .  A
C1076      C1205   1.508       .  S
O1077      C1082   1.268       .  A
O1078      C1080   1.276       .  A
C1079      O1081   1.270       .  A
C1079      C1237   1.494       .  S
C1080      C1410   1.489       .  S
C1082      C1557   1.485       .  S
Fe1083     O1099   2.045   1_556  S
Fe1083     O1089   2.066       .  S
Fe1083     O1096   2.062       .  S
Fe1083     O1088   2.046       .  S
Fe1083     O1094   1.958       .  S
Fe1084     O1087   2.090       .  S
Fe1084     O1091   2.123       .  S
Fe1084     O1095   2.095   1_554  S
Fe1084     O1100   2.115   1_554  S
Fe1084     O1094   1.967   1_554  S
Fe1085     O1103   2.058       .  S
Fe1085     O1090   2.027       .  S
Fe1085     O1097   2.041       .  S
Fe1085     O1086   2.063       .  S
Fe1085     O1094   1.970       .  S
O1086      C1093   1.266       .  A
O1087      C1101   1.272       .  A
O1088      C1093   1.263       .  A
O1089      C1092   1.272       .  A
O1090      C1102   1.267       .  A
O1091      C1104   1.283       .  A
C1092      O1097   1.264       .  A
C1092      C1365   1.465       .  S
C1093      C1458   1.463       .  S
O1095      C1098   1.272       .  A
O1096      C1098   1.265       .  A
C1098      C1541   1.507       .  S
O1099      C1104   1.269       .  A
O1100      C1102   1.281       .  A
C1101      O1103   1.263   1_554  A
C1101      C1605   1.485       .  S
C1102      C1218   1.498       .  S
C1104      C1109   1.492       .  S
C1105      C2786   1.409       .  A
C1105      C1110   1.416       .  A
C1105      H2792   1.083       .  S
C1106      C2785   1.408       .  A
C1106      C1107   1.422       .  A
C1107      C2788   1.408   1_455  A
C1107      C1114   1.518       .  S
C1108      C2787   1.408       .  A
C1108      C1109   1.403       .  A
C1108      H1113   1.084       .  S
C1109      C1110   1.416       .  A
C1110      C1111   1.512       .  S
C1111      F1115   1.384       .  S
C1111      F1116   1.381       .  S
C1111      F1117   1.383       .  S
H1112      C2785   1.083       .  S
C1114      F1118   1.383       .  S
C1114      F1119   1.383       .  S
C1114      F1120   1.385   1_455  S
C1121      C1122   1.406       .  A
C1121      C1126   1.407       .  A
C1121      H1128   1.083       .  S
C1122      C1123   1.411       .  A
C1123      C1124   1.409       .  A
C1123      C1130   1.515       .  S
C1124      C1125   1.410       .  A
C1124      H1129   1.084       .  S
C1125      C1126   1.415       .  A
C1126      C1127   1.518   1_554  S
C1127      F1131   1.385       .  S
C1127      F1132   1.383       .  S
C1127      F1133   1.383       .  S
C1130      F1134   1.383       .  S
C1130      F1135   1.383       .  S
C1130      F1136   1.381       .  S
C1137      C1138   1.397       .  A
C1137      C1142   1.409       .  A
C1137      H1144   1.083       .  S
C1138      C1139   1.416       .  A
C1139      C1140   1.411       .  A
C1139      C1146   1.520       .  S
C1140      C1141   1.408       .  A
C1140      H1145   1.083       .  S
C1141      C1142   1.427       .  A
C1142      C1143   1.519       .  S
C1143      F1147   1.383       .  S
C1143      F1148   1.383       .  S
C1143      F1149   1.383       .  S
C1146      F1150   1.383       .  S
C1146      F1151   1.383       .  S
C1146      F1152   1.384       .  S
C1153      C1154   1.411       .  A
C1153      H1160   1.083       .  S
C1155      C1156   1.398       .  A
C1155      C1162   1.516       .  S
C1156      C1157   1.400       .  A
C1156      H1161   1.083       .  S
C1157      C1158   1.406       .  A
C1159      F1163   1.383   1_545  S
C1162      F1166   1.383       .  S
C1162      F1167   1.379       .  S
C1162      F1168   1.382       .  S
C1169      C1170   1.398       .  A
C1169      C1174   1.405       .  A
C1169      H1176   1.083       .  S
C1170      C1171   1.420       .  A
C1171      C1172   1.402       .  A
C1171      C1178   1.517       .  S
C1172      C1173   1.398       .  A
C1172      H1177   1.084       .  S
C1173      C1174   1.421       .  A
C1174      C1175   1.514       .  S
C1175      F1179   1.382       .  S
C1175      F1180   1.385       .  S
C1175      F1181   1.381       .  S
C1178      F1182   1.381       .  S
C1178      F1183   1.383       .  S
C1178      F1184   1.385       .  S
C1185      C1186   1.407       .  A
C1185      C1190   1.408       .  A
C1185      H1192   1.083       .  S
C1186      C1187   1.420       .  A
C1187      C1188   1.392       .  A
C1187      C1194   1.519       .  S
C1188      C1189   1.397       .  A
C1188      H1193   1.086       .  S
C1189      C1190   1.415       .  A
C1190      C1191   1.518       .  S
C1191      F1195   1.385       .  S
C1191      F1196   1.383       .  S
C1191      F1197   1.383       .  S
C1194      F1198   1.384       .  S
C1194      F1199   1.373       .  S
C1194      F1200   1.382       .  S
C1201      C1202   1.402       .  A
C1201      C1206   1.414       .  A
C1201      H1208   1.083       .  S
C1202      C1203   1.415       .  A
C1203      C2884   1.406   1_455  A
C1203      C1210   1.518       .  S
C1204      C2883   1.412       .  A
C1204      C1205   1.410       .  A
C1204      H1209   1.083       .  S
C1205      C2886   1.431       .  A
C1206      C2885   1.432   1_455  A
C1206      C1207   1.521   1_455  S
C1207      F1211   1.385   1_655  S
C1207      F2892   1.383       .  S
C1207      F2893   1.383       .  S
C1210      F1214   1.384       .  S
C1210      F1215   1.383       .  S
C1210      F2896   1.384       .  S
F1212      C2887   1.383       .  S
F1213      C2887   1.382       .  S
F1216      C2890   1.385       .  S
C1217      C1218   1.415       .  A
C1217      C1222   1.404       .  A
C1217      H1224   1.083       .  S
C1218      C1219   1.419       .  A
C1219      C1220   1.411       .  A
C1219      C1226   1.517   1_556  S
C1220      C1221   1.408       .  A
C1220      H1225   1.084       .  S
C1221      C1222   1.410       .  A
C1222      C1223   1.520       .  S
C1223      F1227   1.384       .  S
C1223      F1228   1.383       .  S
C1223      F1229   1.384       .  S
C1226      F1230   1.384       .  S
C1226      F1231   1.382       .  S
C1226      F1232   1.384       .  S
C1233      C1234   1.405       .  A
C1233      C1238   1.409       .  A
C1233      H1240   1.083       .  S
C1234      C1235   1.422       .  A
C1235      C1236   1.406       .  A
C1235      C1242   1.522       .  S
C1236      C1237   1.406       .  A
C1236      H1241   1.083       .  S
C1237      C1238   1.425       .  A
C1238      C1239   1.523       .  S
C1239      F1243   1.385       .  S
C1239      F1244   1.382       .  S
C1239      F1245   1.381       .  S
C1242      F1246   1.383       .  S
C1242      F1247   1.383       .  S
C1242      F1248   1.384       .  S
C1249      C1250   1.409       .  A
C1249      C1254   1.408       .  A
C1249      H1256   1.082       .  S
C1250      C1251   1.430       .  A
C1251      C1252   1.418       .  A
C1251      C1258   1.521       .  S
C1252      C1253   1.404       .  A
C1252      H1257   1.083       .  S
C1253      C1254   1.413       .  A
C1254      C1255   1.518       .  S
C1255      F1259   1.384       .  S
C1255      F1260   1.383       .  S
C1255      F1261   1.382       .  S
C1258      F1262   1.384       .  S
C1258      F1263   1.382       .  S
C1258      F1264   1.384       .  S
C1265      C1266   1.415       .  A
C1265      H1272   1.080       .  S
C1267      C1268   1.406       .  A
C1268      C1269   1.407   1_554  A
C1268      H1273   1.084       .  S
C1269      C1270   1.402       .  A
C1270      C1271   1.516       .  S
C1271      F1275   1.382       .  S
C1271      F1276   1.383       .  S
C1271      F1277   1.383       .  S
C1274      F1278   1.383       .  S
C1274      F1279   1.382       .  S
C1281      C1282   1.407       .  A
C1281      H1288   1.085       .  S
C1282      C1283   1.423       .  A
C1283      C1290   1.516       .  S
C1284      C1285   1.403       .  A
C1284      H1289   1.084       .  S
C1285      C1286   1.414       .  A
C1286      C1287   1.516       .  S
C1287      F1291   1.384       .  S
C1287      F1292   1.384       .  S
C1287      F1293   1.382       .  S
C1290      F1294   1.382       .  S
C1290      F1295   1.379       .  S
C1290      F1296   1.385       .  S
C1297      C1298   1.401       .  A
C1297      C1302   1.397       .  A
C1297      H1304   1.083       .  S
C1298      C1299   1.413       .  A
C1299      C1300   1.402       .  A
C1299      C1306   1.518       .  S
C1300      C1301   1.405       .  A
C1300      H1305   1.083       .  S
C1301      C1302   1.422       .  A
C1302      C1303   1.527       .  S
C1303      F1307   1.380       .  S
C1303      F1308   1.385       .  S
C1303      F1309   1.379       .  S
C1306      F1310   1.382       .  S
C1306      F1311   1.383       .  S
C1306      F1312   1.385       .  S
C1313      C1314   1.409       .  A
C1313      C1318   1.407       .  A
C1313      H1320   1.084       .  S
C1314      C1315   1.406       .  A
C1315      C1316   1.398       .  A
C1315      C1322   1.517       .  S
C1316      C1317   1.407       .  A
C1316      H1321   1.079       .  S
C1317      C1318   1.409       .  A
C1318      C1319   1.515       .  S
C1319      F1323   1.383       .  S
C1319      F1324   1.383       .  S
C1319      F1325   1.383       .  S
C1322      F1326   1.384       .  S
C1322      F1327   1.383       .  S
C1322      F1328   1.383       .  S
C1329      C1330   1.405       .  A
C1329      C1334   1.418       .  A
C1329      H1336   1.083       .  S
C1330      C1331   1.418       .  A
C1331      C1332   1.405       .  A
C1331      C1338   1.518       .  S
C1332      C1333   1.408       .  A
C1332      H1337   1.084       .  S
C1333      C1334   1.426       .  A
C1334      C1335   1.517       .  S
C1335      F1339   1.385       .  S
C1335      F1340   1.383       .  S
C1335      F1341   1.381       .  S
C1338      F1342   1.383       .  S
C1338      F1343   1.383       .  S
C1338      F1344   1.385       .  S
C1345      C1346   1.400       .  A
C1345      C1350   1.410       .  A
C1345      H1352   1.084       .  S
C1346      C1347   1.417       .  A
C1347      C1348   1.407       .  A
C1347      C1354   1.517       .  S
C1348      C1349   1.401       .  A
C1348      H1353   1.083       .  S
C1349      C1350   1.422       .  A
C1350      C1351   1.518       .  S
C1351      F1355   1.385       .  S
C1351      F1356   1.384       .  S
C1351      F1357   1.381       .  S
C1354      F1358   1.382       .  S
C1354      F1359   1.383       .  S
C1354      F1360   1.385       .  S
C1361      C1362   1.405       .  A
C1361      C1366   1.393       .  A
C1361      H1368   1.088       .  S
C1362      C3043   1.414       .  A
C1363      C3042   1.413       .  A
C1363      C1364   1.410       .  A
C1363      C1370   1.513       .  S
C1364      C1365   1.408       .  A
C1364      H1369   1.085       .  S
C1365      C3046   1.406       .  A
C1366      C3045   1.407   1_455  A
C1366      C1367   1.515       .  S
C1367      F1371   1.384       .  S
C1367      F3052   1.384       .  S
C1367      F1373   1.383       .  S
C1370      F1374   1.381       .  S
C1370      F3055   1.380       .  S
C1370      F1376   1.385       .  S
F1372      C3047   1.385       .  S
F1375      C3050   1.380       .  S
C1377      C1382   1.413       .  A
C1377      H1384   1.082       .  S
C1378      C1379   1.428   1_565  A
C1379      C1386   1.518   1_545  S
C1380      C1381   1.400       .  A
C1380      H1385   1.083       .  S
C1381      C1382   1.416       .  A
C1382      C1383   1.517       .  S
C1383      F1387   1.385       .  S
C1383      F1388   1.383       .  S
C1383      F1389   1.382       .  S
C1386      F1390   1.382       .  S
C1386      F1391   1.383       .  S
C1386      F1392   1.385   1_565  S
C1393      C1394   1.400       .  A
C1393      C1398   1.395       .  A
C1393      H1400   1.084       .  S
C1394      C1395   1.416       .  A
C1395      C1396   1.405       .  A
C1395      C1402   1.519       .  S
C1396      C1397   1.407       .  A
C1396      H1401   1.083       .  S
C1397      C1398   1.424       .  A
C1398      C1399   1.526       .  S
C1399      F1403   1.384       .  S
C1399      F1404   1.382       .  S
C1399      F1405   1.381       .  S
C1402      F1406   1.385       .  S
C1402      F1407   1.383       .  S
C1402      F1408   1.383       .  S
C1409      C1410   1.408       .  A
C1409      C1414   1.410       .  A
C1409      H1416   1.080       .  S
C1410      C1411   1.414       .  A
C1411      C1412   1.409       .  A
C1411      C1418   1.519       .  S
C1412      C1413   1.411       .  A
C1412      H1417   1.083       .  S
C1413      C1414   1.414       .  A
C1414      C1415   1.515       .  S
C1415      F1419   1.382       .  S
C1415      F1420   1.380       .  S
C1415      F1421   1.383       .  S
C1418      F1422   1.383       .  S
C1418      F1423   1.381       .  S
C1418      F1424   1.384       .  S
C1425      C1426   1.409       .  A
C1425      C1430   1.405       .  A
C1425      H1432   1.082       .  S
C1426      C1427   1.431       .  A
C1427      C1428   1.410       .  A
C1427      C1434   1.522       .  S
C1428      C1429   1.399       .  A
C1428      H1433   1.083       .  S
C1429      C1430   1.418       .  A
C1430      C1431   1.523       .  S
C1431      F1435   1.385       .  S
C1431      F1436   1.382       .  S
C1431      F1437   1.384       .  S
C1434      F1438   1.383       .  S
C1434      F1439   1.384       .  S
C1434      F1440   1.385       .  S
C1441      C1442   1.410       .  A
C1441      C3126   1.410       .  A
C1441      H1448   1.083       .  S
C1442      C1443   1.423       .  A
C1443      C3124   1.409       .  A
C1443      C1450   1.512       .  S
C1444      C3123   1.409       .  A
C1444      C1445   1.398       .  A
C1444      H1449   1.084       .  S
C1445      C1446   1.412       .  A
C1446      C3121   1.410   1_455  A
C1446      C1447   1.515       .  S
C1447      F3131   1.385       .  S
C1447      F1452   1.383       .  S
C1447      F1453   1.383       .  S
C1450      F1454   1.382       .  S
C1450      F1455   1.378       .  S
C1450      F3136   1.385       .  S
F1451      C3127   1.385       .  S
F1456      C3130   1.385   1_455  S
C1457      C1458   1.404       .  A
C1457      C1462   1.399       .  A
C1457      H1464   1.086       .  S
C1458      C1459   1.414       .  A
C1459      C1460   1.403       .  A
C1459      C1466   1.520       .  S
C1460      C1461   1.403       .  A
C1460      H1465   1.084       .  S
C1461      C1462   1.410       .  A
C1462      C1463   1.518       .  S
C1463      F1467   1.383       .  S
C1463      F1468   1.381       .  S
C1463      F1469   1.382       .  S
C1466      F1470   1.383       .  S
C1466      F1471   1.384       .  S
C1466      F1472   1.382       .  S
C1473      C1474   1.409       .  A
C1473      C1478   1.417       .  A
C1473      H1480   1.082       .  S
C1474      C1475   1.426       .  A
C1475      C1476   1.413       .  A
C1475      C1482   1.520       .  S
C1476      C1477   1.404       .  A
C1476      H1481   1.083       .  S
C1477      C1478   1.422       .  A
C1478      C1479   1.518       .  S
C1479      F1483   1.385       .  S
C1479      F1484   1.383       .  S
C1479      F1485   1.383       .  S
C1482      F1486   1.383       .  S
C1482      F1487   1.385       .  S
C1482      F1488   1.384       .  S
C1489      C1490   1.407       .  A
C1489      C1494   1.408       .  A
C1489      H1496   1.084       .  S
C1490      C1491   1.413       .  A
C1491      C1492   1.408       .  A
C1491      C1498   1.518       .  S
C1492      C1493   1.409       .  A
C1492      H1497   1.083       .  S
C1493      C1494   1.412       .  A
C1494      C1495   1.515       .  S
C1495      F1499   1.383       .  S
C1495      F1500   1.382       .  S
C1495      F1501   1.383       .  S
C1498      F1502   1.383       .  S
C1498      F1503   1.382       .  S
C1498      F1504   1.385       .  S
C1505      C1506   1.398       .  A
C1505      C1510   1.402       .  A
C1505      H1512   1.083       .  S
C1506      C1507   1.419       .  A
C1507      C1508   1.408       .  A
C1507      C1514   1.523   1_556  S
C1508      C1509   1.410       .  A
C1508      H1513   1.082       .  S
C1509      C1510   1.430       .  A
C1510      C1511   1.523       .  S
C1511      F1515   1.385       .  S
C1511      F1516   1.383       .  S
C1511      F1517   1.383       .  S
C1514      F1518   1.383       .  S
C1514      F1519   1.383       .  S
C1514      F1520   1.385       .  S
C1521      C1522   1.399       .  A
C1521      C1526   1.396       .  A
C1521      H1528   1.082       .  S
C1522      C1523   1.409       .  A
C1523      C1524   1.401       .  A
C1523      C1530   1.517       .  S
C1524      C1525   1.410       .  A
C1524      H1529   1.085       .  S
C1525      C1526   1.426       .  A
C1526      C1527   1.528       .  S
C1527      F1531   1.385       .  S
C1527      F1532   1.377       .  S
C1527      F1533   1.374       .  S
C1530      F1534   1.383       .  S
C1530      F1535   1.382       .  S
C1530      F1536   1.384       .  S
C1537      C1538   1.404       .  A
C1537      C1542   1.412       .  A
C1537      H1544   1.084       .  S
C1538      C1539   1.422       .  A
C1539      C1540   1.417       .  A
C1539      C1546   1.518       .  S
C1540      C1541   1.409       .  A
C1540      H1545   1.082       .  S
C1541      C1542   1.425       .  A
C1542      C1543   1.519       .  S
C1543      F1547   1.385       .  S
C1543      F1548   1.383       .  S
C1543      F1549   1.384   1_556  S
C1546      F1550   1.383       .  S
C1546      F1551   1.383       .  S
C1546      F1552   1.385       .  S
C1553      C1558   1.408       .  A
C1554      C1555   1.426   1_565  A
C1555      C1562   1.513   1_545  S
C1556      C1557   1.402       .  A
C1556      H1561   1.083       .  S
C1557      C1558   1.412       .  A
C1558      C1559   1.517       .  S
C1559      F1563   1.384       .  S
C1559      F1564   1.384       .  S
C1559      F1565   1.383       .  S
C1562      F1566   1.383       .  S
C1562      F1567   1.378       .  S
C1562      F1568   1.385   1_565  S
C1569      C1570   1.406       .  A
C1569      C1574   1.407       .  A
C1569      H1576   1.082       .  S
C1570      C1571   1.412       .  A
C1571      C1572   1.398       .  A
C1571      C1578   1.519       .  S
C1572      C1573   1.400       .  A
C1572      H1577   1.086       .  S
C1573      C1574   1.412       .  A
C1574      C1575   1.520       .  S
C1575      F1579   1.383       .  S
C1575      F1580   1.383       .  S
C1575      F1581   1.379       .  S
C1578      F1582   1.381       .  S
C1578      F1583   1.381       .  S
C1578      F1584   1.381       .  S
C1585      C1586   1.399       .  A
C1585      C1590   1.405       .  A
C1585      H1592   1.085       .  S
C1586      C1587   1.426       .  A
C1587      C1588   1.409       .  A
C1587      C1594   1.516       .  S
C1588      C1589   1.398       .  A
C1588      H1593   1.084       .  S
C1589      C1590   1.419       .  A
C1590      C1591   1.512       .  S
C1591      F1595   1.382       .  S
C1591      F1596   1.380       .  S
C1591      F1597   1.381       .  S
C1594      F1598   1.383       .  S
C1594      F1599   1.383       .  S
C1594      F1600   1.385       .  S
C1601      C1602   1.407       .  A
C1601      C1606   1.410       .  A
C1601      H1608   1.080       .  S
C1602      C1603   1.425       .  A
C1603      C1604   1.410       .  A
C1603      C1610   1.521       .  S
C1604      C1605   1.400       .  A
C1604      H1609   1.076       .  S
C1605      C1606   1.417       .  A
C1606      C1607   1.519       .  S
C1607      F1611   1.384       .  S
C1607      F1612   1.383   1_554  S
C1607      F1613   1.382       .  S
C1610      F1614   1.384       .  S
C1610      F1615   1.382       .  S
C1610      F1616   1.385       .  S
C1617      C1618   1.402       .  A
C1617      C3302   1.414       .  A
C1617      H1624   1.083       .  S
C1618      C1619   1.415       .  A
C1619      C3300   1.405       .  A
C1619      C1626   1.515       .  S
C1620      C3299   1.410   1_455  A
C1620      C1621   1.411       .  A
C1620      H1625   1.083       .  S
C1621      C1622   1.429   1_455  A
C1622      C3297   1.414       .  A
C1622      C1623   1.521   1_655  S
C1623      F3307   1.384   1_455  S
C1623      F1628   1.383   1_554  S
C1623      F1629   1.383       .  S
C1626      F1630   1.381       .  S
C1626      F1631   1.384       .  S
C1626      F3312   1.383       .  S
F1627      C3303   1.385       .  S
F1632      C3306   1.384       .  S
C1633      C3314   1.407       .  A
C1633      C1638   1.408       .  A
C1633      H1640   1.083       .  S
C1634      C3313   1.410       .  A
C1634      C1635   1.420   1_455  A
C1635      C1636   1.400       .  A
C1635      C1642   1.526       .  S
C1636      C3317   1.405       .  A
C1636      H1641   1.081       .  S
C1637      C3316   1.409       .  A
C1637      C1638   1.419       .  A
C1638      C1639   1.518       .  S
C1639      F1643   1.384       .  S
C1639      F1644   1.383       .  S
C1639      F1645   1.383       .  S
C1642      F1646   1.382       .  S
C1642      F1647   1.378   1_655  S
C1642      F1648   1.383       .  S
C1649      C1650   1.407       .  A
C1649      H1656   1.083       .  S
C1650      C1651   1.424       .  A
C1651      C1658   1.517       .  S
C1652      C1653   1.402       .  A
C1652      H1657   1.084       .  S
C1653      C1654   1.416       .  A
C1654      C1655   1.516       .  S
C1655      F1659   1.385       .  S
C1655      F1660   1.383       .  S
C1655      F1661   1.382       .  S
C1658      F1662   1.382       .  S
C1658      F1663   1.382       .  S
C1658      F1664   1.385       .  S
C1665      C1666   1.404       .  A
C1665      C1670   1.390       .  A
C1665      H1672   1.084       .  S
C1666      C1667   1.419       .  A
C1667      C1668   1.412       .  A
C1667      C1674   1.519       .  S
C1668      C1669   1.406       .  A
C1668      H1673   1.083       .  S
C1669      C1670   1.403       .  A
C1670      C1671   1.512       .  S
C1671      F1675   1.383       .  S
C1671      F1676   1.384       .  S
C1671      F1677   1.381       .  S
C1674      F1678   1.383       .  S
C1674      F1679   1.384       .  S
C1674      F1680   1.383       .  S
Fe1681     O1697   2.040       .  S
Fe1681     O1687   2.068       .  S
Fe1681     O1694   2.046       .  S
Fe1681     O1686   2.054       .  S
Fe1681     O1692   1.988       .  S
Fe1682     O1685   2.092       .  S
Fe1682     O1689   2.099       .  S
Fe1682     O1693   2.084       .  S
Fe1682     O1698   2.098       .  S
Fe1682     O1692   1.975       .  S
Fe1683     O1701   2.048       .  S
Fe1683     O1688   2.036       .  S
Fe1683     O1695   2.040       .  S
Fe1683     O1684   2.037       .  S
Fe1683     O1692   1.969       .  S
O1684      C1691   1.268       .  A
O1685      C1699   1.273       .  A
O1686      C1691   1.266       .  A
O1687      C1690   1.266       .  A
O1688      C1700   1.264       .  A
O1689      C1702   1.278       .  A
C1690      O1695   1.260       .  A
C1690      C2477   1.492       .  S
C1691      C2506   1.471       .  S
O1693      C1696   1.270       .  A
O1694      C1696   1.261       .  A
C1696      C2490   1.493       .  S
O1697      C1702   1.267       .  A
O1698      C1700   1.278       .  A
C1699      O1701   1.262       .  A
C1699      C2442   1.499       .  S
C1700      C2426   1.487       .  S
C1702      C2458   1.476       .  S
Fe1703     O1719   2.068       .  S
Fe1703     O1709   2.048       .  S
Fe1703     O1716   2.051       .  S
Fe1703     O1708   2.082       .  S
Fe1703     O1714   1.947       .  S
Fe1704     O1707   2.103       .  S
Fe1704     O1711   2.105       .  S
Fe1704     O1715   2.120       .  S
Fe1704     O1720   2.090       .  S
Fe1704     O1714   1.943       .  S
Fe1705     O1723   2.040       .  S
Fe1705     O1710   2.045       .  S
Fe1705     O1717   2.041       .  S
Fe1705     O1706   2.048       .  S
Fe1705     O1714   1.955       .  S
O1706      C1713   1.270       .  A
O1707      C1721   1.280       .  A
O1708      C1713   1.271       .  A
O1709      C1712   1.263       .  A
O1710      C1722   1.264       .  A
O1711      C1724   1.276       .  A
C1712      O1717   1.260       .  A
C1712      C2362   1.458       .  S
C1713      C2410   1.461       .  S
O1715      C1718   1.280       .  A
O1716      C1718   1.270       .  A
C1718      C2394   1.504       .  S
O1719      C1724   1.268       .  A
O1720      C1722   1.273       .  A
C1721      O1723   1.265       .  A
C1721      C2349   1.501       .  S
C1722      C2333   1.483       .  S
C1724      C2378   1.498       .  S
Fe1725     O1741   2.068       .  S
Fe1725     O1731   2.042       .  S
Fe1725     O1738   2.032       .  S
Fe1725     O1730   2.069       .  S
Fe1725     O1736   1.944       .  S
Fe1726     O1729   2.114       .  S
Fe1726     O1733   2.090       .  S
Fe1726     O1737   2.121       .  S
Fe1726     O1742   2.070       .  S
Fe1726     O1736   1.943       .  S
Fe1727     O1745   2.050       .  S
Fe1727     O1732   2.051       .  S
Fe1727     O1739   2.049       .  S
Fe1727     O1728   2.045       .  S
Fe1727     O1736   1.952       .  S
O1728      C1735   1.270       .  A
O1729      C1743   1.284       .  A
O1730      C1735   1.270       .  A
O1731      C1734   1.259       .  A
O1732      C1744   1.263       .  A
O1733      C1746   1.275       .  A
C1734      O1739   1.262       .  A
C1734      C2365   1.473       .  S
C1735      C2301   1.450       .  S
O1737      C1740   1.278       .  A
O1738      C1740   1.262       .  A
C1740      C2282   1.501       .  S
O1741      C1746   1.271       .  A
O1742      C1744   1.266       .  A
C1743      O1745   1.269       .  A
C1743      C2266   1.506       .  S
C1744      C2253   1.478       .  S
C1746      C2317   1.486       .  S
Fe1747     O1763   2.051       .  S
Fe1747     O1753   2.060       .  S
Fe1747     O1760   2.061       .  S
Fe1747     O1752   2.065       .  S
Fe1747     O1758   1.954       .  S
Fe1748     O1751   2.081       .  S
Fe1748     O1755   2.121       .  S
Fe1748     O1759   2.082       .  S
Fe1748     O1764   2.097       .  S
Fe1748     O1758   1.947       .  S
Fe1749     O1767   2.055       .  S
Fe1749     O1754   2.034       .  S
Fe1749     O1761   2.048       .  S
Fe1749     O1750   2.055       .  S
Fe1749     O1758   1.943       .  S
O1750      C1757   1.275       .  A
O1751      C1765   1.274       .  A
O1752      C1757   1.275       .  A
O1753      C1756   1.265       .  A
O1754      C1766   1.264       .  A
O1755      C1768   1.285       .  A
C1756      O1761   1.259       .  A
C1756      C2202   1.473       .  S
C1757      C2234   1.476       .  S
O1759      C1762   1.266       .  A
O1760      C1762   1.259       .  A
C1762      C2218   1.497       .  S
O1763      C1768   1.276       .  A
O1764      C1766   1.275       .  A
C1765      O1767   1.267       .  A
C1765      C2189   1.479       .  S
C1766      C2330   1.480       .  S
C1768      C2285   1.481       .  S
Fe1769     O1785   2.063       .  S
Fe1769     O1775   2.058       .  S
Fe1769     O1782   2.051       .  S
Fe1769     O1774   2.076       .  S
Fe1769     O1780   1.964       .  S
Fe1770     O1773   2.113       .  S
Fe1770     O1777   2.091       .  S
Fe1770     O1781   2.121       .  S
Fe1770     O1786   2.081       .  S
Fe1770     O1780   1.961       .  S
Fe1771     O1789   2.045       .  S
Fe1771     O1776   2.045       .  S
Fe1771     O1783   2.056       .  S
Fe1771     O1772   2.031       .  S
Fe1771     O1780   1.952       .  S
O1772      C1779   1.262       .  A
O1773      C1787   1.282       .  A
O1774      C1779   1.272       .  A
O1775      C1778   1.266       .  A
O1776      C1788   1.261       .  A
O1777      C1790   1.273       .  A
C1778      O1783   1.264       .  A
C1778      C2157   1.469       .  S
C1779      C2141   1.471       .  S
O1781      C1784   1.281       .  A
O1782      C1784   1.269       .  A
C1784      C2122   1.504       .  S
O1785      C1790   1.269       .  A
O1786      C1788   1.268       .  A
C1787      O1789   1.269       .  A
C1787      C2269   1.488       .  S
C1788      C2429   1.473       .  S
C1790      C2170   1.489       .  S
Fe1791     O1807   2.055       .  S
Fe1791     O1797   2.059       .  S
Fe1791     O1804   2.071       .  S
Fe1791     O1796   2.056       .  S
Fe1791     O1802   1.964       .  S
Fe1792     O1795   2.068       .  S
Fe1792     O1799   2.124       .  S
Fe1792     O1803   2.076       .  S
Fe1792     O1808   2.104       .  S
Fe1792     O1802   1.957       .  S
Fe1793     O1811   2.054       .  S
Fe1793     O1798   2.038       .  S
Fe1793     O1805   2.049       .  S
Fe1793     O1794   2.041       .  S
Fe1793     O1802   1.955       .  S
O1794      C1801   1.268       .  A
O1795      C1809   1.271       .  A
O1796      C1801   1.268       .  A
O1797      C1800   1.267       .  A
O1798      C1810   1.265       .  A
O1799      C1812   1.283       .  A
C1800      O1805   1.264       .  A
C1800      C2109   1.462       .  S
C1801      C2138   1.467   1_556  S
O1803      C1806   1.266       .  A
O1804      C1806   1.267       .  A
C1806      C2090   1.503       .  S
O1807      C1812   1.271       .  A
O1808      C1810   1.277       .  A
C1809      O1811   1.264       .  A
C1809      C2074   1.489       .  S
C1810      C2061   1.486       .  S
C1812      C2221   1.491       .  S
Fe1813     O1829   2.071       .  S
Fe1813     O1819   2.053       .  S
Fe1813     O1826   2.046       .  S
Fe1813     O1818   2.083       .  S
Fe1813     O1824   1.944       .  S
Fe1814     O1817   2.106       .  S
Fe1814     O1821   2.086       .  S
Fe1814     O1825   2.119       .  S
Fe1814     O1830   2.074       .  S
Fe1814     O1824   1.945       .  S
Fe1815     O1833   2.039       .  S
Fe1815     O1820   2.062       .  S
Fe1815     O1827   2.061       .  S
Fe1815     O1816   2.039       .  S
Fe1815     O1824   1.948       .  S
O1816      C1823   1.267       .  A
O1817      C1831   1.277       .  A
O1818      C1823   1.271       .  A
O1819      C1822   1.262       .  A
O1820      C1832   1.267       .  A
O1821      C1834   1.274       .  A
C1822      O1827   1.266       .  A
C1822      C2474   1.482       .  S
C1823      C2026   1.467       .  S
O1825      C1828   1.278       .  A
O1826      C1828   1.269       .  A
C1828      C2173   1.503       .  S
O1829      C1834   1.269       .  A
O1830      C1832   1.273       .  A
C1831      O1833   1.264       .  A
C1831      C2186   1.472       .  S
C1832      C2010   1.480       .  S
C1834      C2042   1.486       .  S
Fe1835     O1851   2.049       .  S
Fe1835     O1841   2.057       .  S
Fe1835     O1848   2.064       .  S
Fe1835     O1840   2.051       .  S
Fe1835     O1846   1.963       .  S
Fe1836     O1839   2.075       .  S
Fe1836     O1843   2.113       .  S
Fe1836     O1847   2.087       .  S
Fe1836     O1852   2.102       .  S
Fe1836     O1846   1.965       .  S
Fe1837     O1855   2.068       .  S
Fe1837     O1842   2.046       .  S
Fe1837     O1849   2.051       .  S
Fe1837     O1838   2.067       .  S
Fe1837     O1846   1.963       .  S
O1838      C1845   1.270       .  A
O1839      C1853   1.272       .  A
O1840      C1845   1.268       .  A
O1841      C1844   1.267       .  A
O1842      C1854   1.266       .  A
O1843      C1856   1.279       .  A
C1844      O1849   1.264       .  A
C1844      C1994   1.465       .  S
C1845      C2413   1.463       .  S
O1847      C1850   1.272       .  A
O1848      C1850   1.264       .  A
C1850      C2314   1.500       .  S
O1851      C1856   1.268       .  A
O1852      C1854   1.277       .  A
C1853      O1855   1.267       .  A
C1853      C1981   1.494       .  S
C1854      C2013   1.484       .  S
C1856      C2493   1.484       .  S
Fe1857     O1873   2.050   1_554  S
Fe1857     O1863   2.061       .  S
Fe1857     O1870   2.067       .  S
Fe1857     O1862   2.054       .  S
Fe1857     O1868   1.970       .  S
Fe1858     O1861   2.078       .  S
Fe1858     O1865   2.116       .  S
Fe1858     O1869   2.079       .  S
Fe1858     O1874   2.111   1_556  S
Fe1858     O1868   1.965   1_556  S
Fe1859     O1877   2.059       .  S
Fe1859     O1864   2.035       .  S
Fe1859     O1871   2.035       .  S
Fe1859     O1860   2.053       .  S
Fe1859     O1868   1.961       .  S
O1860      C1867   1.268       .  A
O1861      C1875   1.272       .  A
O1862      C1867   1.267       .  A
O1863      C1866   1.268       .  A
O1864      C1876   1.265       .  A
O1865      C1878   1.280       .  A
C1866      O1871   1.261       .  A
C1866      C2154   1.456       .  S
C1867      C2029   1.462       .  S
O1869      C1872   1.268   1_556  A
O1870      C1872   1.268       .  A
C1872      C2461   1.501       .  S
O1873      C1878   1.268       .  A
O1874      C1876   1.278       .  A
C1875      O1877   1.264   1_556  A
C1875      C2346   1.487       .  S
C1876      C1965   1.493       .  S
C1878      C2093   1.485       .  S
Fe1879     O1895   2.072       .  S
Fe1879     O1885   2.055       .  S
Fe1879     O1892   2.057       .  S
Fe1879     O1884   2.072       .  S
Fe1879     O1890   1.949       .  S
Fe1880     O1883   2.103       .  S
Fe1880     O1887   2.086       .  S
Fe1880     O1891   2.100       .  S
Fe1880     O1896   2.087       .  S
Fe1880     O1890   1.951       .  S
Fe1881     O1899   2.049       .  S
Fe1881     O1886   2.055       .  S
Fe1881     O1893   2.061       .  S
Fe1881     O1882   2.038       .  S
Fe1881     O1890   1.947       .  S
O1882      C1889   1.264       .  A
O1883      C1897   1.277       .  A
O1884      C1889   1.272       .  A
O1885      C1888   1.267       .  A
O1886      C1898   1.267       .  A
O1887      C1900   1.274       .  A
C1888      O1893   1.267       .  A
C1888      C2106   1.477       .  S
C1889      C2237   1.480   1_554  S
O1891      C1894   1.276       .  A
O1892      C1894   1.269       .  A
C1894      C1946   1.491       .  S
O1895      C1900   1.270       .  A
O1896      C1898   1.272       .  A
C1897      O1899   1.268       .  A
C1897      C1978   1.479       .  S
C1898      C1962   1.482       .  S
C1900      C2125   1.489       .  S
Fe1901     O1917   2.047       .  S
Fe1901     O1907   2.088       .  S
Fe1901     O1914   2.098       .  S
Fe1901     O1906   2.038       .  S
Fe1901     O1912   1.957       .  S
Fe1902     O1905   2.055       .  S
Fe1902     O1909   2.115       .  S
Fe1902     O1913   2.060       .  S
Fe1902     O1918   2.104       .  S
Fe1902     O1912   1.953       .  S
Fe1903     O1921   2.069       .  S
Fe1903     O1908   2.035       .  S
Fe1903     O1915   2.041       .  S
Fe1903     O1904   2.066       .  S
Fe1903     O1912   1.946       .  S
O1904      C1911   1.271       .  A
O1905      C1919   1.270       .  A
O1906      C1911   1.265       .  A
O1907      C1910   1.273       .  A
O1908      C1920   1.265       .  A
O1909      C1922   1.279       .  A
C1910      O1915   1.261       .  A
C1910      C1997   1.466       .  S
C1911      C2509   1.454       .  S
O1913      C1916   1.264       .  A
O1914      C1916   1.276       .  A
C1916      C2045   1.510       .  S
O1917      C1922   1.268       .  A
O1918      C1920   1.276       .  A
C1919      O1921   1.267       .  A
C1919      C2077   1.488       .  S
C1920      C2250   1.484       .  S
C1922      C2397   1.484       .  S
Fe1923     O1939   2.042   1_556  S
Fe1923     O1929   2.070       .  S
Fe1923     O1936   2.067       .  S
Fe1923     O1928   2.042       .  S
Fe1923     O1934   1.960       .  S
Fe1924     O1927   2.088       .  S
Fe1924     O1931   2.125       .  S
Fe1924     O1935   2.092   1_554  S
Fe1924     O1940   2.115   1_554  S
Fe1924     O1934   1.963   1_554  S
Fe1925     O1943   2.058       .  S
Fe1925     O1930   2.032       .  S
Fe1925     O1937   2.044       .  S
Fe1925     O1926   2.061       .  S
Fe1925     O1934   1.966       .  S
O1926      C1933   1.267       .  A
O1927      C1941   1.272       .  A
O1928      C1933   1.263       .  A
O1929      C1932   1.272       .  A
O1930      C1942   1.267       .  A
O1931      C1944   1.283       .  A
C1932      O1937   1.264       .  A
C1932      C2205   1.467       .  S
C1933      C2298   1.452       .  S
O1935      C1938   1.271       .  A
O1936      C1938   1.265       .  A
C1938      C2381   1.507       .  S
O1939      C1944   1.269       .  A
O1940      C1942   1.280       .  A
C1941      O1943   1.264   1_554  A
C1941      C2445   1.487       .  S
C1942      C2058   1.500       .  S
C1944      C1949   1.488       .  S
C1945      C1950   1.413   1_455  A
C1946      C1947   1.419       .  A
C1947      C1954   1.516       .  S
C1948      C1949   1.404       .  A
C1948      H1953   1.084       .  S
C1949      C1950   1.415       .  A
C1950      C1951   1.514       .  S
C1951      F1955   1.384       .  S
C1951      F1956   1.383       .  S
C1951      F1957   1.383       .  S
C1954      F1958   1.383       .  S
C1954      F1959   1.382       .  S
C1954      F1960   1.385       .  S
C1961      C1962   1.407       .  A
C1961      C1966   1.410       .  A
C1961      H1968   1.083       .  S
C1962      C1963   1.408       .  A
C1963      C1964   1.410       .  A
C1963      C1970   1.515       .  S
C1964      C1965   1.413       .  A
C1964      H1969   1.083       .  S
C1965      C1966   1.417       .  A
C1966      C1967   1.518   1_554  S
C1967      F1971   1.384       .  S
C1967      F1972   1.383       .  S
C1967      F1973   1.382       .  S
C1970      F1974   1.383       .  S
C1970      F1975   1.383       .  S
C1970      F1976   1.380       .  S
C1977      C1978   1.401       .  A
C1977      C1982   1.412       .  A
C1977      H1984   1.083       .  S
C1978      C1979   1.415       .  A
C1979      C1980   1.407       .  A
C1979      C1986   1.520       .  S
C1980      C1981   1.406       .  A
C1980      H1985   1.083       .  S
C1981      C1982   1.427       .  A
C1982      C1983   1.521       .  S
C1983      F1987   1.384       .  S
C1983      F1988   1.383       .  S
C1983      F1989   1.383       .  S
C1986      F1990   1.383       .  S
C1986      F1991   1.383       .  S
C1986      F1992   1.384       .  S
C1993      C1994   1.408       .  A
C1993      C2838   1.409       .  A
C1993      H2000   1.084       .  S
C1994      C2835   1.408       .  A
C1995      C2834   1.406   1_545  A
C1995      C1996   1.399       .  A
C1995      C2002   1.515       .  S
C1996      C1997   1.402       .  A
C1996      H2001   1.083       .  S
C1997      C1998   1.407       .  A
C1998      C2833   1.410   1_545  A
C1998      C2839   1.513       .  S
C1999      C2838   1.512       .  S
C1999      F2003   1.384       .  S
C1999      F2844   1.383       .  S
C1999      F2845   1.380       .  S
C2002      F2006   1.384       .  S
C2002      F2007   1.380       .  S
C2002      F2008   1.381       .  S
F2004      C2839   1.383       .  S
F2005      C2839   1.380       .  S
C2009      C2010   1.398       .  A
C2009      C2014   1.404       .  A
C2009      H2016   1.083       .  S
C2010      C2011   1.422       .  A
C2011      C2012   1.407       .  A
C2011      C2018   1.519       .  S
C2012      C2013   1.401       .  A
C2012      H2017   1.083       .  S
C2013      C2014   1.420       .  A
C2014      C2015   1.511       .  S
C2015      F2019   1.382       .  S
C2015      F2020   1.385       .  S
C2015      F2021   1.381       .  S
C2018      F2022   1.382       .  S
C2018      F2023   1.383       .  S
C2018      F2024   1.385       .  S
C2025      C2026   1.404       .  A
C2025      C2030   1.407       .  A
C2025      H2032   1.084       .  S
C2026      C2027   1.418       .  A
C2027      C2028   1.392       .  A
C2027      C2034   1.516       .  S
C2028      C2029   1.395       .  A
C2028      H2033   1.086       .  S
C2029      C2030   1.415       .  A
C2030      C2031   1.517       .  S
C2031      F2035   1.385       .  S
C2031      F2036   1.382       .  S
C2031      F2037   1.382       .  S
C2034      F2038   1.382       .  S
C2034      F2039   1.373       .  S
C2034      F2040   1.383       .  S
C2041      C2042   1.401       .  A
C2041      C2046   1.413       .  A
C2041      H2048   1.083       .  S
C2042      C2043   1.414       .  A
C2043      C2050   1.515       .  S
C2044      C2045   1.409       .  A
C2044      H2049   1.084       .  S
C2046      C2047   1.521       .  S
C2047      F2051   1.385       .  S
C2050      F2054   1.384       .  S
C2050      F2055   1.382       .  S
C2057      C2058   1.414       .  A
C2057      C2062   1.404       .  A
C2057      H2064   1.080       .  S
C2058      C2059   1.419       .  A
C2059      C2060   1.412       .  A
C2059      C2066   1.518   1_556  S
C2060      C2061   1.410       .  A
C2060      H2065   1.083       .  S
C2061      C2062   1.411       .  A
C2062      C2063   1.519       .  S
C2063      F2067   1.385       .  S
C2063      F2068   1.383       .  S
C2063      F2069   1.383       .  S
C2066      F2070   1.383       .  S
C2066      F2071   1.381       .  S
C2066      F2072   1.384       .  S
C2073      C2074   1.405       .  A
C2073      C2078   1.407       .  A
C2073      H2080   1.082       .  S
C2074      C2075   1.423       .  A
C2075      C2076   1.404       .  A
C2075      C2082   1.523       .  S
C2076      C2077   1.405       .  A
C2076      H2081   1.083       .  S
C2077      C2078   1.424       .  A
C2078      C2079   1.523       .  S
C2079      F2083   1.385       .  S
C2079      F2084   1.382       .  S
C2079      F2085   1.381       .  S
C2082      F2086   1.383       .  S
C2082      F2087   1.383       .  S
C2082      F2088   1.385       .  S
C2089      C2090   1.409       .  A
C2089      C2094   1.412       .  A
C2089      H2096   1.083       .  S
C2090      C2091   1.428       .  A
C2091      C2092   1.414       .  A
C2091      C2098   1.520       .  S
C2092      C2093   1.401       .  A
C2092      H2097   1.084       .  S
C2093      C2094   1.413       .  A
C2094      C2095   1.516       .  S
C2095      F2099   1.385       .  S
C2095      F2100   1.383       .  S
C2095      F2101   1.383       .  S
C2098      F2102   1.383       .  S
C2098      F2103   1.382       .  S
C2098      F2104   1.384       .  S
C2105      C2106   1.412   1_556  A
C2105      C2950   1.401       .  A
C2105      H2112   1.081       .  S
C2106      C2947   1.414       .  A
C2107      C2946   1.413   1_545  A
C2107      C2108   1.406       .  A
C2107      C2954   1.516       .  S
C2108      C2109   1.406   1_554  A
C2108      H2113   1.084       .  S
C2109      C2110   1.404   1_545  A
C2110      C2945   1.403       .  A
C2110      C2111   1.517       .  S
C2111      F2115   1.382       .  S
C2111      F2116   1.383   1_565  S
C2111      F2117   1.383       .  S
C2114      C2947   1.517       .  S
C2114      F2118   1.383       .  S
C2114      F2119   1.382       .  S
C2114      F2960   1.385       .  S
F2120      C2954   1.385       .  S
C2121      C2122   1.411       .  A
C2121      C2966   1.408   1_545  A
C2121      H2128   1.085       .  S
C2122      C2123   1.425       .  A
C2123      C2964   1.415   1_545  A
C2123      C2130   1.515       .  S
C2124      C2963   1.414       .  A
C2124      C2125   1.405       .  A
C2124      H2129   1.083       .  S
C2125      C2126   1.417       .  A
C2126      C2961   1.408       .  A
C2126      C2127   1.517       .  S
C2127      F2131   1.385       .  S
C2127      F2132   1.384       .  S
C2127      F2133   1.381       .  S
C2130      F2134   1.382       .  S
C2130      F2135   1.379       .  S
C2130      F2136   1.385   1_545  S
C2137      C2138   1.400       .  A
C2137      C2142   1.394       .  A
C2137      H2144   1.083       .  S
C2138      C2139   1.414       .  A
C2139      C2140   1.405       .  A
C2139      C2146   1.519       .  S
C2140      C2141   1.407       .  A
C2140      H2145   1.083       .  S
C2141      C2142   1.423       .  A
C2142      C2143   1.529       .  S
C2143      F2147   1.380       .  S
C2143      F2148   1.384       .  S
C2143      F2149   1.380       .  S
C2146      F2150   1.383       .  S
C2146      F2151   1.383       .  S
C2146      F2152   1.384       .  S
C2153      C2154   1.408       .  A
C2153      C2158   1.406       .  A
C2153      H2160   1.083       .  S
C2154      C2155   1.405       .  A
C2155      C2156   1.395       .  A
C2155      C2162   1.519       .  S
C2156      C2157   1.407       .  A
C2156      H2161   1.076       .  S
C2157      C2158   1.408       .  A
C2158      C2159   1.515       .  S
C2159      F2163   1.385       .  S
C2159      F2164   1.383       .  S
C2159      F2165   1.382       .  S
C2162      F2166   1.383       .  S
C2162      F2167   1.383       .  S
C2162      F2168   1.383       .  S
C2169      C2170   1.406       .  A
C2169      C2174   1.418       .  A
C2169      H2176   1.083       .  S
C2170      C2171   1.415       .  A
C2171      C2172   1.404       .  A
C2171      C2178   1.518       .  S
C2172      C2173   1.409       .  A
C2172      H2177   1.085       .  S
C2173      C2174   1.425       .  A
C2174      C2175   1.517       .  S
C2175      F2179   1.385       .  S
C2175      F2180   1.383       .  S
C2175      F2181   1.381       .  S
C2178      F2182   1.384       .  S
C2178      F2183   1.383       .  S
C2178      F2184   1.384       .  S
C2185      C2186   1.399       .  A
C2185      C2190   1.407       .  A
C2185      H2192   1.084       .  S
C2186      C2187   1.416       .  A
C2187      C2188   1.406       .  A
C2187      C2194   1.517       .  S
C2188      C2189   1.401       .  A
C2188      H2193   1.083       .  S
C2189      C2190   1.420       .  A
C2190      C2191   1.517       .  S
C2191      F2195   1.385       .  S
C2191      F2196   1.383       .  S
C2191      F2197   1.380       .  S
C2194      F2198   1.383       .  S
C2194      F2199   1.382       .  S
C2194      F2200   1.385       .  S
C2201      C2202   1.406       .  A
C2201      C2206   1.392       .  A
C2201      H2208   1.081       .  S
C2203      C2204   1.412   1_455  A
C2203      C2210   1.516   1_455  S
C2204      C2205   1.410       .  A
C2204      H2209   1.086       .  S
C2206      C2207   1.516       .  S
C2207      F2211   1.384       .  S
C2207      F2213   1.383       .  S
C2210      F2214   1.381   1_655  S
C2210      F2216   1.385       .  S
C2217      C3058   1.410   1_545  A
C2217      C2222   1.412       .  A
C2217      H2224   1.082   1_545  S
C2218      C3057   1.407       .  A
C2218      C2219   1.426       .  A
C2219      C3060   1.412       .  A
C2219      C2226   1.517       .  S
C2220      C3059   1.416       .  A
C2220      C2221   1.402       .  A
C2220      H2225   1.083       .  S
C2221      C2222   1.416       .  A
C2222      C2223   1.517       .  S
C2223      F2227   1.385       .  S
C2223      F2228   1.383       .  S
C2223      F2229   1.382       .  S
C2226      F2230   1.383       .  S
C2226      F2231   1.383       .  S
C2226      F2232   1.385       .  S
C2233      C2234   1.405       .  A
C2233      C2238   1.398       .  A
C2233      H2240   1.083       .  S
C2234      C2235   1.414       .  A
C2235      C2236   1.403       .  A
C2235      C2242   1.518       .  S
C2236      C2237   1.408       .  A
C2236      H2241   1.082       .  S
C2237      C2238   1.424       .  A
C2238      C2239   1.527       .  S
C2239      F2243   1.385       .  S
C2239      F2244   1.382       .  S
C2239      F2245   1.382       .  S
C2242      F2246   1.385       .  S
C2242      F2247   1.383       .  S
C2242      F2248   1.384       .  S
C2249      C2250   1.409       .  A
C2249      C2254   1.407       .  A
C2249      H2256   1.078       .  S
C2250      C2251   1.414       .  A
C2251      C2252   1.407       .  A
C2251      C2258   1.519       .  S
C2252      C2253   1.408       .  A
C2252      H2257   1.084       .  S
C2253      C2254   1.410       .  A
C2254      C2255   1.518       .  S
C2255      F2259   1.380       .  S
C2255      F2260   1.381       .  S
C2255      F2261   1.383       .  S
C2258      F2262   1.383       .  S
C2258      F2263   1.381       .  S
C2258      F2264   1.384       .  S
C2265      C2266   1.408       .  A
C2265      C2270   1.407       .  A
C2265      H2272   1.082       .  S
C2266      C2267   1.432       .  A
C2267      C2268   1.413       .  A
C2267      C2274   1.522       .  S
C2268      C2269   1.400       .  A
C2268      H2273   1.083       .  S
C2269      C2270   1.420       .  A
C2270      C2271   1.523       .  S
C2271      F2275   1.385       .  S
C2271      F2276   1.382       .  S
C2271      F2277   1.383       .  S
C2274      F2278   1.384       .  S
C2274      F2279   1.383       .  S
C2274      F2280   1.385       .  S
C2281      C2282   1.410       .  A
C2281      H2288   1.084       .  S
C2282      C2283   1.424       .  A
C2283      C2290   1.513       .  S
C2284      C2285   1.400       .  A
C2284      H2289   1.083       .  S
C2285      C2286   1.411       .  A
C2286      C2287   1.515       .  S
C2287      F2292   1.383       .  S
C2287      F2293   1.383       .  S
C2290      F2294   1.382       .  S
C2290      F2295   1.380       .  S
C2297      C2298   1.402       .  A
C2297      C2302   1.400       .  A
C2297      H2304   1.084       .  S
C2298      C2299   1.410       .  A
C2299      C2300   1.399       .  A
C2299      C2306   1.518       .  S
C2300      C2301   1.401       .  A
C2300      H2305   1.084       .  S
C2301      C2302   1.407       .  A
C2302      C2303   1.516       .  S
C2303      F2307   1.383       .  S
C2303      F2308   1.383       .  S
C2303      F2309   1.383       .  S
C2306      F2310   1.383       .  S
C2306      F2311   1.379       .  S
C2306      F2312   1.384       .  S
C2313      C2314   1.407       .  A
C2313      C2318   1.411       .  A
C2313      H2320   1.083       .  S
C2314      C2315   1.426       .  A
C2315      C2316   1.411       .  A
C2315      C2322   1.518       .  S
C2316      C2317   1.400       .  A
C2316      H2321   1.084       .  S
C2317      C2318   1.419       .  A
C2318      C2319   1.519       .  S
C2319      F2323   1.385       .  S
C2319      F2324   1.384       .  S
C2319      F2325   1.381       .  S
C2322      F2326   1.383       .  S
C2322      F2327   1.384       .  S
C2322      F2328   1.385       .  S
C2329      C2330   1.410       .  A
C2329      C2334   1.409       .  A
C2329      H2336   1.084       .  S
C2330      C2331   1.411       .  A
C2331      C2332   1.408       .  A
C2331      C2338   1.518       .  S
C2332      C2333   1.410       .  A
C2332      H2337   1.084       .  S
C2333      C2334   1.411       .  A
C2334      C2335   1.515       .  S
C2335      F2339   1.383       .  S
C2335      F2340   1.383       .  S
C2335      F2341   1.383       .  S
C2338      F2342   1.383       .  S
C2338      F2343   1.383       .  S
C2338      F2344   1.384       .  S
C2345      C2346   1.401       .  A
C2345      C2350   1.409       .  A
C2345      H2352   1.083       .  S
C2346      C2347   1.421       .  A
C2347      C2348   1.408       .  A
C2347      C2354   1.522   1_556  S
C2348      C2349   1.408       .  A
C2348      H2353   1.082       .  S
C2349      C2350   1.430       .  A
C2350      C2351   1.524       .  S
C2351      F2355   1.384       .  S
C2351      F2356   1.384       .  S
C2351      F2357   1.383       .  S
C2354      F2358   1.383       .  S
C2354      F2359   1.382       .  S
C2354      F2360   1.385       .  S
C2361      C2362   1.398       .  A
C2361      C2366   1.395       .  A
C2361      H2368   1.083       .  S
C2362      C2363   1.411       .  A
C2363      C2364   1.403       .  A
C2363      C2370   1.520       .  S
C2364      C2365   1.410       .  A
C2364      H2369   1.083       .  S
C2365      C2366   1.423       .  A
C2366      C2367   1.526       .  S
C2367      F2371   1.385       .  S
C2367      F2372   1.376       .  S
C2367      F2373   1.375       .  S
C2370      F2374   1.382       .  S
C2370      F2375   1.383       .  S
C2370      F2376   1.384       .  S
C2377      C2378   1.405       .  A
C2377      C2382   1.413       .  A
C2377      H2384   1.084       .  S
C2378      C2379   1.421       .  A
C2379      C2380   1.416       .  A
C2379      C2386   1.517       .  S
C2380      C2381   1.409       .  A
C2380      H2385   1.083       .  S
C2381      C2382   1.425       .  A
C2382      C2383   1.519       .  S
C2383      F2387   1.385       .  S
C2383      F2388   1.383       .  S
C2383      F2389   1.384   1_556  S
C2386      F2390   1.382       .  S
C2386      F2391   1.383       .  S
C2386      F2392   1.385       .  S
C2393      C3234   1.407       .  A
C2393      C2398   1.408   1_565  A
C2393      H3240   1.083       .  S
C2394      C3233   1.408       .  A
C2394      C2395   1.426       .  A
C2395      C3236   1.417       .  A
C2395      C2402   1.515       .  S
C2396      C3235   1.416       .  A
C2396      C2397   1.404       .  A
C2396      H2401   1.083       .  S
C2397      C2398   1.412       .  A
C2398      C2399   1.517       .  S
C2399      F2403   1.384       .  S
C2399      F2404   1.383       .  S
C2399      F2405   1.383       .  S
H2400      C3233   1.083       .  S
C2402      F2406   1.383       .  S
C2402      F2407   1.379       .  S
C2402      F2408   1.384       .  S
C2409      C2410   1.406       .  A
C2409      C2414   1.407       .  A
C2409      H2416   1.083       .  S
C2410      C2411   1.413       .  A
C2411      C2412   1.399       .  A
C2411      C2418   1.520       .  S
C2412      C2413   1.401       .  A
C2412      H2417   1.086       .  S
C2413      C2414   1.411       .  A
C2414      C2415   1.520       .  S
C2415      F2419   1.384       .  S
C2415      F2420   1.382       .  S
C2415      F2421   1.376       .  S
C2418      F2422   1.382       .  S
C2418      F2423   1.382       .  S
C2418      F2424   1.383       .  S
C2425      C2426   1.398       .  A
C2425      C2430   1.404       .  A
C2425      H2432   1.085       .  S
C2426      C2427   1.425       .  A
C2427      C2428   1.406       .  A
C2427      C2434   1.516       .  S
C2428      C2429   1.398       .  A
C2428      H2433   1.085       .  S
C2429      C2430   1.420       .  A
C2430      C2431   1.513       .  S
C2431      F2435   1.382       .  S
C2431      F2436   1.382       .  S
C2431      F2437   1.380       .  S
C2434      F2438   1.383       .  S
C2434      F2439   1.383       .  S
C2434      F2440   1.385       .  S
C2441      C2442   1.407       .  A
C2441      C2446   1.410       .  A
C2441      H2448   1.084       .  S
C2442      C2443   1.428       .  A
C2443      C2444   1.410       .  A
C2443      C2450   1.521       .  S
C2444      C2445   1.399       .  A
C2444      H2449   1.088       .  S
C2445      C2446   1.420       .  A
C2446      C2447   1.520       .  S
C2447      F2451   1.384       .  S
C2447      F2452   1.382   1_554  S
C2447      F2453   1.381       .  S
C2450      F2454   1.384       .  S
C2450      F2455   1.383       .  S
C2450      F2456   1.383       .  S
C2457      C2458   1.399       .  A
C2457      H2464   1.083       .  S
C2458      C2459   1.412       .  A
C2459      C2466   1.517       .  S
C2460      C2461   1.410       .  A
C2460      H2465   1.084       .  S
C2461      C2462   1.428       .  A
C2462      C2463   1.520       .  S
C2463      F2468   1.383   1_554  S
C2463      F2469   1.383       .  S
C2466      F2470   1.384       .  S
C2466      F2471   1.383       .  S
C2473      C2478   1.413       .  A
C2473      H2480   1.083   1_655  S
C2474      C2475   1.416       .  A
C2475      C2476   1.400       .  A
C2475      C2482   1.522       .  S
C2476      H2481   1.082       .  S
C2477      C2478   1.419       .  A
C2478      C2479   1.519       .  S
C2479      F2483   1.385       .  S
C2479      F2484   1.382       .  S
C2479      F2485   1.383       .  S
C2482      F2486   1.384       .  S
C2482      F2487   1.380       .  S
C2482      F2488   1.383       .  S
C2489      C2490   1.407       .  A
C2489      C3334   1.410   1_545  A
C2489      H2496   1.082       .  S
C2490      C2491   1.424       .  A
C2491      C3332   1.407   1_545  A
C2491      C2498   1.517       .  S
C2492      C3331   1.413       .  A
C2492      C2493   1.401       .  A
C2492      H2497   1.083       .  S
C2493      C2494   1.415       .  A
C2494      C3329   1.412       .  A
C2494      C2495   1.519       .  S
C2495      F2499   1.384       .  S
C2495      F2500   1.383       .  S
C2495      F2501   1.382       .  S
C2498      F2502   1.383       .  S
C2498      F2503   1.383       .  S
C2498      F2504   1.385   1_545  S
C2505      C2506   1.404       .  A
C2505      C2510   1.386       .  A
C2505      H2512   1.084       .  S
C2506      C2507   1.419       .  A
C2507      C2508   1.409       .  A
C2507      C2514   1.519       .  S
C2508      C2509   1.403       .  A
C2508      H2513   1.083       .  S
C2509      C2510   1.402       .  A
C2510      C2511   1.511       .  S
C2511      F2515   1.382       .  S
C2511      F2516   1.384       .  S
C2511      F2517   1.383       .  S
C2514      F2518   1.383       .  S
C2514      F2519   1.385       .  S
C2514      F2520   1.383       .  S
Fe2521     O2537   2.042       .  S
Fe2521     O2527   2.063       .  S
Fe2521     O2534   2.053       .  S
Fe2521     O2526   2.058       .  S
Fe2521     O2532   1.984       .  S
Fe2522     O2525   2.087       .  S
Fe2522     O2529   2.108       .  S
Fe2522     O2533   2.092       .  S
Fe2522     O2538   2.089       .  S
Fe2522     O2532   1.982       .  S
Fe2523     O2541   2.052       .  S
Fe2523     O2528   2.037       .  S
Fe2523     O2535   2.042       .  S
Fe2523     O2524   2.047       .  S
Fe2523     O2532   1.972       .  S
O2524      C2531   1.269       .  A
O2525      C2539   1.272       .  A
O2526      C2531   1.266       .  A
O2527      C2530   1.266       .  A
O2528      C2540   1.264       .  A
O2529      C2542   1.278       .  A
C2530      O2535   1.260       .  A
C2530      C3317   1.488       .  S
C2531      C3346   1.476       .  S
O2533      C2536   1.271       .  A
O2534      C2536   1.262       .  A
C2536      C3330   1.499       .  S
O2537      C2542   1.266       .  A
O2538      C2540   1.275       .  A
C2539      O2541   1.264       .  A
C2539      C3282   1.481       .  S
C2540      C3266   1.480       .  S
C2542      C3298   1.484       .  S
Fe2543     O2559   2.066       .  S
Fe2543     O2549   2.048       .  S
Fe2543     O2556   2.047       .  S
Fe2543     O2548   2.072       .  S
Fe2543     O2554   1.936       .  S
Fe2544     O2547   2.117       .  S
Fe2544     O2551   2.083       .  S
Fe2544     O2555   2.120       .  S
Fe2544     O2560   2.062       .  S
Fe2544     O2554   1.943       .  S
Fe2545     O2563   2.035       .  S
Fe2545     O2550   2.053       .  S
Fe2545     O2557   2.050       .  S
Fe2545     O2546   2.046       .  S
Fe2545     O2554   1.950       .  S
O2546      C2553   1.271       .  A
O2547      C2561   1.284       .  A
O2548      C2553   1.271       .  A
O2549      C2552   1.264       .  A
O2550      C2562   1.265       .  A
O2551      C2564   1.273       .  A
C2552      O2557   1.261       .  A
C2552      C3202   1.462       .  S
C2553      C3250   1.453       .  S
O2555      C2558   1.279       .  A
O2556      C2558   1.268       .  A
C2558      C3234   1.498       .  S
O2559      C2564   1.270       .  A
O2560      C2562   1.265       .  A
C2561      O2563   1.264       .  A
C2561      C3189   1.501       .  S
C2562      C3173   1.470       .  S
C2564      C3218   1.486       .  S
Fe2565     O2581   2.076       .  S
Fe2565     O2571   2.041       .  S
Fe2565     O2578   2.033       .  S
Fe2565     O2570   2.069       .  S
Fe2565     O2576   1.942       .  S
Fe2566     O2569   2.115       .  S
Fe2566     O2573   2.093       .  S
Fe2566     O2577   2.119       .  S
Fe2566     O2582   2.078       .  S
Fe2566     O2576   1.943       .  S
Fe2567     O2585   2.040       .  S
Fe2567     O2572   2.052       .  S
Fe2567     O2579   2.053       .  S
Fe2567     O2568   2.045       .  S
Fe2567     O2576   1.952       .  S
O2568      C2575   1.270       .  A
O2569      C2583   1.284       .  A
O2570      C2575   1.268       .  A
O2571      C2574   1.260       .  A
O2572      C2584   1.264       .  A
O2573      C2586   1.276       .  A
C2574      O2579   1.264       .  A
C2574      C3205   1.475       .  S
C2575      C3141   1.452       .  S
O2577      C2580   1.278       .  A
O2578      C2580   1.262       .  A
C2580      C3122   1.496       .  S
O2581      C2586   1.272       .  A
O2582      C2584   1.269       .  A
C2583      O2585   1.266       .  A
C2583      C3106   1.502       .  S
C2584      C3093   1.481       .  S
C2586      C3157   1.491       .  S
Fe2587     O2603   2.054       .  S
Fe2587     O2593   2.077       .  S
Fe2587     O2600   2.072       .  S
Fe2587     O2592   2.058       .  S
Fe2587     O2598   1.953       .  S
Fe2588     O2591   2.087       .  S
Fe2588     O2595   2.112       .  S
Fe2588     O2599   2.088       .  S
Fe2588     O2604   2.091       .  S
Fe2588     O2598   1.949       .  S
Fe2589     O2607   2.047       .  S
Fe2589     O2594   2.024       .  S
Fe2589     O2601   2.046       .  S
Fe2589     O2590   2.052       .  S
Fe2589     O2598   1.944       .  S
O2590      C2597   1.274       .  A
O2591      C2605   1.275       .  A
O2592      C2597   1.273       .  A
O2593      C2596   1.268       .  A
O2594      C2606   1.262       .  A
O2595      C2608   1.283       .  A
C2596      O2601   1.258       .  A
C2596      C3042   1.476       .  S
C2597      C3074   1.472       .  S
O2599      C2602   1.269       .  A
O2600      C2602   1.262       .  A
C2602      C3058   1.509       .  S
O2603      C2608   1.276       .  A
O2604      C2606   1.273       .  A
C2605      O2607   1.266       .  A
C2605      C3029   1.477       .  S
C2606      C3170   1.469       .  S
C2608      C3125   1.477       .  S
Fe2609     O2625   2.056       .  S
Fe2609     O2615   2.053       .  S
Fe2609     O2622   2.053       .  S
Fe2609     O2614   2.069       .  S
Fe2609     O2620   1.966       .  S
Fe2610     O2613   2.088       .  S
Fe2610     O2617   2.075       .  S
Fe2610     O2621   2.103       .  S
Fe2610     O2626   2.068       .  S
Fe2610     O2620   1.980       .  S
Fe2611     O2629   2.050       .  S
Fe2611     O2616   2.053       .  S
Fe2611     O2623   2.072       .  S
Fe2611     O2612   2.041       .  S
Fe2611     O2620   1.964       .  S
O2612      C2619   1.262       .  A
O2613      C2627   1.273       .  A
O2614      C2619   1.269       .  A
O2615      C2618   1.269       .  A
O2616      C2628   1.267       .  A
O2617      C2630   1.269       .  A
C2618      O2623   1.271       .  A
C2618      C2997   1.484       .  S
C2619      C2981   1.481       .  S
O2621      C2624   1.275       .  A
O2622      C2624   1.269       .  A
C2624      C2962   1.497       .  S
O2625      C2630   1.266       .  A
O2626      C2628   1.269       .  A
C2627      O2629   1.266       .  A
C2627      C3109   1.475       .  S
C2628      C3269   1.470       .  S
C2630      C3010   1.477       .  S
Fe2631     O2647   2.054       .  S
Fe2631     O2637   2.052       .  S
Fe2631     O2644   2.068       .  S
Fe2631     O2636   2.064       .  S
Fe2631     O2642   1.957       .  S
Fe2632     O2635   2.069       .  S
Fe2632     O2639   2.110       .  S
Fe2632     O2643   2.073       .  S
Fe2632     O2648   2.084       .  S
Fe2632     O2642   1.956       .  S
Fe2633     O2651   2.072       .  S
Fe2633     O2638   2.037       .  S
Fe2633     O2645   2.050       .  S
Fe2633     O2634   2.059       .  S
Fe2633     O2642   1.949       .  S
O2634      C2641   1.272       .  A
O2635      C2649   1.273       .  A
O2636      C2641   1.272       .  A
O2637      C2640   1.264       .  A
O2638      C2650   1.264       .  A
O2639      C2652   1.279       .  A
C2640      O2645   1.263       .  A
C2640      C2949   1.458       .  S
C2641      C2978   1.472   1_556  S
O2643      C2646   1.265       .  A
O2644      C2646   1.266       .  A
C2646      C2930   1.500       .  S
O2647      C2652   1.271       .  A
O2648      C2650   1.272       .  A
C2649      O2651   1.270       .  A
C2649      C2914   1.493       .  S
C2650      C2901   1.474       .  S
C2652      C3061   1.481       .  S
Fe2653     O2669   2.069       .  S
Fe2653     O2659   2.048       .  S
Fe2653     O2666   2.039       .  S
Fe2653     O2658   2.077       .  S
Fe2653     O2664   1.955       .  S
Fe2654     O2657   2.093       .  S
Fe2654     O2661   2.091       .  S
Fe2654     O2665   2.111       .  S
Fe2654     O2670   2.080       .  S
Fe2654     O2664   1.950       .  S
Fe2655     O2673   2.048       .  S
Fe2655     O2660   2.062       .  S
Fe2655     O2667   2.064       .  S
Fe2655     O2656   2.048       .  S
Fe2655     O2664   1.945       .  S
O2656      C2663   1.267       .  A
O2657      C2671   1.273       .  A
O2658      C2663   1.268       .  A
O2659      C2662   1.264       .  A
O2660      C2672   1.269       .  A
O2661      C2674   1.275       .  A
C2662      O2667   1.269       .  A
C2662      C3314   1.483       .  S
C2663      C2866   1.474       .  S
O2665      C2668   1.278       .  A
O2666      C2668   1.267       .  A
C2668      C3013   1.488       .  S
O2669      C2674   1.266       .  A
O2670      C2672   1.275       .  A
C2671      O2673   1.265       .  A
C2671      C3026   1.474       .  S
C2672      C2850   1.487       .  S
C2674      C2882   1.493       .  S
Fe2675     O2691   2.056       .  S
Fe2675     O2681   2.059       .  S
Fe2675     O2688   2.073       .  S
Fe2675     O2680   2.054       .  S
Fe2675     O2686   1.960       .  S
Fe2676     O2679   2.071       .  S
Fe2676     O2683   2.103       .  S
Fe2676     O2687   2.082       .  S
Fe2676     O2692   2.097       .  S
Fe2676     O2686   1.962       .  S
Fe2677     O2695   2.060       .  S
Fe2677     O2682   2.046       .  S
Fe2677     O2689   2.050       .  S
Fe2677     O2678   2.051       .  S
Fe2677     O2686   1.966       .  S
O2678      C2685   1.268       .  A
O2679      C2693   1.272       .  A
O2680      C2685   1.269       .  A
O2681      C2684   1.268       .  A
O2682      C2694   1.265       .  A
O2683      C2696   1.277       .  A
C2684      O2689   1.263       .  A
C2684      C2834   1.465       .  S
C2685      C3253   1.458       .  S
O2687      C2690   1.271       .  A
O2688      C2690   1.266       .  A
C2690      C3154   1.500       .  S
O2691      C2696   1.270       .  A
O2692      C2694   1.277       .  A
C2693      O2695   1.265       .  A
C2693      C2821   1.496       .  S
C2694      C2853   1.482       .  S
C2696      C3333   1.480       .  S
Fe2697     O2713   2.053       .  S
Fe2697     O2703   2.092       .  S
Fe2697     O2710   2.082       .  S
Fe2697     O2702   2.051       .  S
Fe2697     O2708   1.959       .  S
Fe2698     O2701   2.066       .  S
Fe2698     O2705   2.112       .  S
Fe2698     O2709   2.063   1_556  S
Fe2698     O2714   2.107   1_556  S
Fe2698     O2708   1.951   1_556  S
Fe2699     O2717   2.061       .  S
Fe2699     O2704   2.024       .  S
Fe2699     O2711   2.039       .  S
Fe2699     O2700   2.075       .  S
Fe2699     O2708   1.938       .  S
O2700      C2707   1.276       .  A
O2701      C2715   1.271       .  A
O2702      C2707   1.270       .  A
O2703      C2706   1.270       .  A
O2704      C2716   1.265       .  A
O2705      C2718   1.281       .  A
C2706      O2711   1.257       .  A
C2706      C2994   1.474       .  S
C2707      C2869   1.467       .  S
O2709      C2712   1.264       .  A
O2710      C2712   1.270       .  A
C2712      C3301   1.503       .  S
O2713      C2718   1.274   1_554  A
O2714      C2716   1.276       .  A
C2715      O2717   1.267   1_556  A
C2715      C3186   1.484       .  S
C2716      C2805   1.492       .  S
C2718      C2933   1.478       .  S
Fe2719     O2735   2.078       .  S
Fe2719     O2725   2.064       .  S
Fe2719     O2732   2.058       .  S
Fe2719     O2724   2.076       .  S
Fe2719     O2730   1.947       .  S
Fe2720     O2723   2.113       .  S
Fe2720     O2727   2.081       .  S
Fe2720     O2731   2.107       .  S
Fe2720     O2736   2.079       .  S
Fe2720     O2730   1.949       .  S
Fe2721     O2739   2.037       .  S
Fe2721     O2726   2.047       .  S
Fe2721     O2733   2.058       .  S
Fe2721     O2722   2.030       .  S
Fe2721     O2730   1.948       .  S
O2722      C2729   1.263       .  A
O2723      C2737   1.282       .  A
O2724      C2729   1.274       .  A
O2725      C2728   1.268       .  A
O2726      C2738   1.262       .  A
O2727      C2740   1.274       .  A
C2728      O2733   1.265       .  A
C2728      C2946   1.479       .  S
C2729      C3077   1.473   1_554  S
O2731      C2734   1.277       .  A
O2732      C2734   1.268       .  A
C2734      C2786   1.501       .  S
O2735      C2740   1.273       .  A
O2736      C2738   1.268       .  A
C2737      O2739   1.267       .  A
C2737      C2818   1.479       .  S
C2738      C2802   1.471       .  S
C2740      C2965   1.487       .  S
Fe2741     O2757   2.054       .  S
Fe2741     O2747   2.075       .  S
Fe2741     O2754   2.082       .  S
Fe2741     O2746   2.051       .  S
Fe2741     O2752   1.964       .  S
Fe2742     O2745   2.070       .  S
Fe2742     O2749   2.113       .  S
Fe2742     O2753   2.070       .  S
Fe2742     O2758   2.103       .  S
Fe2742     O2752   1.966       .  S
Fe2743     O2761   2.069       .  S
Fe2743     O2748   2.041       .  S
Fe2743     O2755   2.047       .  S
Fe2743     O2744   2.071       .  S
Fe2743     O2752   1.953       .  S
O2744      C2751   1.272       .  A
O2745      C2759   1.273       .  A
O2746      C2751   1.267       .  A
O2747      C2750   1.271       .  A
O2748      C2760   1.266       .  A
O2749      C2762   1.278       .  A
C2750      O2755   1.262       .  A
C2750      C2837   1.466       .  S
C2751      C3349   1.466       .  S
O2753      C2756   1.267       .  A
O2754      C2756   1.272       .  A
C2756      C2885   1.508       .  S
O2757      C2762   1.269       .  A
O2758      C2760   1.275       .  A
C2759      O2761   1.268       .  A
C2759      C2917   1.494       .  S
C2760      C3090   1.484       .  S
C2762      C3237   1.487       .  S
Fe2763     O2779   2.035   1_556  S
Fe2763     O2769   2.064       .  S
Fe2763     O2776   2.054       .  S
Fe2763     O2768   2.045       .  S
Fe2763     O2774   1.963       .  S
Fe2764     O2767   2.076       .  S
Fe2764     O2771   2.121       .  S
Fe2764     O2775   2.075       .  S
Fe2764     O2780   2.108   1_554  S
Fe2764     O2774   1.967   1_554  S
Fe2765     O2783   2.058       .  S
Fe2765     O2770   2.031       .  S
Fe2765     O2777   2.047       .  S
Fe2765     O2766   2.058       .  S
Fe2765     O2774   1.964       .  S
O2766      C2773   1.267       .  A
O2767      C2781   1.269       .  A
O2768      C2773   1.264       .  A
O2769      C2772   1.269       .  A
O2770      C2782   1.267       .  A
O2771      C2784   1.284       .  A
C2772      O2777   1.264       .  A
C2772      C3045   1.468       .  S
C2773      C3138   1.452       .  S
O2775      C2778   1.267   1_554  A
O2776      C2778   1.261       .  A
C2778      C3221   1.498       .  S
O2779      C2784   1.269       .  A
O2780      C2782   1.279       .  A
C2781      O2783   1.264   1_554  A
C2781      C3285   1.476       .  S
C2782      C2898   1.498       .  S
C2784      C2789   1.480       .  S
C2785      C2790   1.412   1_455  A
C2786      C2787   1.423       .  A
C2787      C2794   1.518       .  S
C2788      C2789   1.403       .  A
C2788      H2793   1.084       .  S
C2789      C2790   1.415       .  A
C2790      C2791   1.517       .  S
C2791      F2795   1.385       .  S
C2791      F2796   1.384       .  S
C2791      F2797   1.383       .  S
C2794      F2798   1.383       .  S
C2794      F2799   1.383       .  S
C2794      F2800   1.385       .  S
C2801      C2802   1.405       .  A
C2801      C2806   1.411       .  A
C2801      H2808   1.083       .  S
C2802      C2803   1.405       .  A
C2803      C2804   1.403       .  A
C2803      C2810   1.516       .  S
C2804      C2805   1.413       .  A
C2804      H2809   1.083       .  S
C2805      C2806   1.420       .  A
C2806      C2807   1.517   1_554  S
C2807      F2811   1.385       .  S
C2807      F2812   1.383       .  S
C2807      F2813   1.383       .  S
C2810      F2814   1.383       .  S
C2810      F2815   1.383       .  S
C2810      F2816   1.379       .  S
C2817      C2818   1.399       .  A
C2817      C2822   1.409       .  A
C2817      H2824   1.083       .  S
C2818      C2819   1.418       .  A
C2819      C2820   1.405       .  A
C2819      C2826   1.521       .  S
C2820      C2821   1.407       .  A
C2820      H2825   1.082       .  S
C2821      C2822   1.429       .  A
C2822      C2823   1.522       .  S
C2823      F2827   1.385       .  S
C2823      F2828   1.384       .  S
C2823      F2829   1.383       .  S
C2826      F2830   1.383       .  S
C2826      F2831   1.382       .  S
C2826      F2832   1.385       .  S
C2833      C2834   1.409       .  A
C2833      H2840   1.083       .  S
C2835      C2836   1.399       .  A
C2835      C2842   1.514       .  S
C2836      C2837   1.402       .  A
C2836      H2841   1.084       .  S
C2837      C2838   1.408       .  A
C2839      F2843   1.384   1_545  S
C2842      F2846   1.382       .  S
C2842      F2847   1.380       .  S
C2842      F2848   1.382       .  S
C2849      C2850   1.401       .  A
C2849      C2854   1.409       .  A
C2849      H2856   1.083       .  S
C2850      C2851   1.424       .  A
C2851      C2852   1.403       .  A
C2851      C2858   1.515       .  S
C2852      C2853   1.397       .  A
C2852      H2857   1.084       .  S
C2853      C2854   1.421       .  A
C2854      C2855   1.513       .  S
C2855      F2859   1.382       .  S
C2855      F2860   1.385       .  S
C2855      F2861   1.381       .  S
C2858      F2862   1.382       .  S
C2858      F2863   1.380       .  S
C2858      F2864   1.385       .  S
C2865      C2866   1.406       .  A
C2865      C2870   1.409       .  A
C2865      H2872   1.083       .  S
C2866      C2867   1.418       .  A
C2867      C2868   1.394       .  A
C2867      C2874   1.516       .  S
C2868      C2869   1.397       .  A
C2868      H2873   1.085       .  S
C2869      C2870   1.416       .  A
C2870      C2871   1.518       .  S
C2871      F2875   1.384       .  S
C2871      F2876   1.382       .  S
C2871      F2877   1.383       .  S
C2874      F2878   1.381       .  S
C2874      F2879   1.376       .  S
C2874      F2880   1.383       .  S
C2881      C2882   1.401       .  A
C2881      C2886   1.412       .  A
C2881      H2888   1.083       .  S
C2882      C2883   1.420       .  A
C2883      C2890   1.519       .  S
C2884      C2885   1.411       .  A
C2884      H2889   1.084       .  S
C2886      C2887   1.521       .  S
C2887      F2891   1.385       .  S
C2890      F2894   1.383       .  S
C2890      F2895   1.382       .  S
C2897      C2898   1.415       .  A
C2897      C2902   1.402       .  A
C2897      H2904   1.082       .  S
C2898      C2899   1.420       .  A
C2899      C2900   1.410       .  A
C2899      C2906   1.516       .  S
C2900      C2901   1.406       .  A
C2900      H2905   1.084       .  S
C2901      C2902   1.409       .  A
C2902      C2903   1.521       .  S
C2903      F2907   1.384       .  S
C2903      F2908   1.383       .  S
C2903      F2909   1.383       .  S
C2906      F2910   1.384       .  S
C2906      F2911   1.380   1_556  S
C2906      F2912   1.385   1_556  S
C2913      C2914   1.405       .  A
C2913      C2918   1.409       .  A
C2913      H2920   1.082       .  S
C2914      C2915   1.422       .  A
C2915      C2916   1.408       .  A
C2915      C2922   1.521       .  S
C2916      C2917   1.406       .  A
C2916      H2921   1.083       .  S
C2917      C2918   1.425       .  A
C2918      C2919   1.523       .  S
C2919      F2923   1.385       .  S
C2919      F2924   1.383       .  S
C2919      F2925   1.381       .  S
C2922      F2926   1.383       .  S
C2922      F2927   1.382       .  S
C2922      F2928   1.384       .  S
C2929      C2930   1.411       .  A
C2929      C2934   1.409       .  A
C2929      H2936   1.083       .  S
C2930      C2931   1.429       .  A
C2931      C2932   1.410       .  A
C2931      C2938   1.519       .  S
C2932      C2933   1.399       .  A
C2932      H2937   1.083       .  S
C2933      C2934   1.411       .  A
C2934      C2935   1.517       .  S
C2935      F2939   1.385       .  S
C2935      F2940   1.383       .  S
C2935      F2941   1.383       .  S
C2938      F2942   1.383       .  S
C2938      F2943   1.381       .  S
C2938      F2944   1.385       .  S
C2945      C2946   1.412   1_556  A
C2945      H2952   1.082       .  S
C2947      C2948   1.405       .  A
C2948      C2949   1.405   1_554  A
C2948      H2953   1.084       .  S
C2949      C2950   1.403       .  A
C2950      C2951   1.518       .  S
C2951      F2955   1.382       .  S
C2951      F2956   1.383       .  S
C2951      F2957   1.384       .  S
C2954      F2958   1.383       .  S
C2954      F2959   1.382       .  S
C2961      C2962   1.407       .  A
C2961      H2968   1.083       .  S
C2962      C2963   1.423       .  A
C2963      C2970   1.517       .  S
C2964      C2965   1.403       .  A
C2964      H2969   1.084       .  S
C2965      C2966   1.415       .  A
C2966      C2967   1.518       .  S
C2967      F2971   1.384       .  S
C2967      F2972   1.384       .  S
C2967      F2973   1.383       .  S
C2970      F2974   1.383       .  S
C2970      F2975   1.381       .  S
C2970      F2976   1.384       .  S
C2977      C2978   1.400       .  A
C2977      C2982   1.399       .  A
C2977      H2984   1.084       .  S
C2978      C2979   1.415       .  A
C2979      C2980   1.407       .  A
C2979      C2986   1.518       .  S
C2980      C2981   1.407       .  A
C2980      H2985   1.083       .  S
C2981      C2982   1.424       .  A
C2982      C2983   1.523       .  S
C2983      F2987   1.381       .  S
C2983      F2988   1.385       .  S
C2983      F2989   1.378       .  S
C2986      F2990   1.383       .  S
C2986      F2991   1.383       .  S
C2986      F2992   1.385       .  S
C2993      C2994   1.405       .  A
C2993      C2998   1.399       .  A
C2993      H3000   1.083       .  S
C2994      C2995   1.414       .  A
C2995      C2996   1.410       .  A
C2995      C3002   1.516       .  S
C2996      C2997   1.408       .  A
C2996      H3001   1.080       .  S
C2997      C2998   1.410       .  A
C2998      C2999   1.513       .  S
C2999      F3003   1.383       .  S
C2999      F3004   1.385       .  S
C2999      F3005   1.382       .  S
C3002      F3006   1.382       .  S
C3002      F3007   1.383       .  S
C3002      F3008   1.384       .  S
C3009      C3010   1.403       .  A
C3009      C3014   1.410       .  A
C3009      H3016   1.083       .  S
C3010      C3011   1.413       .  A
C3011      C3012   1.406       .  A
C3011      C3018   1.519       .  S
C3012      C3013   1.408       .  A
C3012      H3017   1.083       .  S
C3013      C3014   1.421       .  A
C3014      C3015   1.516       .  S
C3015      F3019   1.384       .  S
C3015      F3020   1.382       .  S
C3015      F3021   1.381       .  S
C3018      F3022   1.383       .  S
C3018      F3023   1.382       .  S
C3018      F3024   1.384       .  S
C3025      C3026   1.399       .  A
C3025      C3030   1.406       .  A
C3025      H3032   1.084       .  S
C3026      C3027   1.419       .  A
C3027      C3028   1.407       .  A
C3027      C3034   1.518       .  S
C3028      C3029   1.400       .  A
C3028      H3033   1.083       .  S
C3029      C3030   1.420       .  A
C3030      C3031   1.517       .  S
C3031      F3035   1.385       .  S
C3031      F3036   1.383       .  S
C3031      F3037   1.381       .  S
C3034      F3038   1.382       .  S
C3034      F3039   1.382       .  S
C3034      F3040   1.385       .  S
C3041      C3042   1.406       .  A
C3041      C3046   1.394       .  A
C3041      H3048   1.082       .  S
C3043      C3044   1.410   1_455  A
C3043      C3050   1.514       .  S
C3044      C3045   1.408       .  A
C3044      H3049   1.087       .  S
C3046      C3047   1.516       .  S
C3047      F3051   1.383       .  S
C3047      F3053   1.383       .  S
C3050      F3054   1.381       .  S
C3050      F3056   1.385   1_455  S
C3057      C3062   1.409       .  A
C3057      H3064   1.083       .  S
C3058      C3059   1.430   1_565  A
C3059      C3066   1.520   1_545  S
C3060      C3061   1.399       .  A
C3060      H3065   1.084       .  S
C3061      C3062   1.416       .  A
C3062      C3063   1.518       .  S
C3063      F3067   1.384       .  S
C3063      F3068   1.382       .  S
C3063      F3069   1.382       .  S
C3066      F3070   1.383       .  S
C3066      F3071   1.383       .  S
C3066      F3072   1.385   1_565  S
C3073      C3074   1.404       .  A
C3073      C3078   1.395       .  A
C3073      H3080   1.083       .  S
C3074      C3075   1.415       .  A
C3075      C3076   1.401       .  A
C3075      C3082   1.518       .  S
C3076      C3077   1.406       .  A
C3076      H3081   1.082       .  S
C3077      C3078   1.423       .  A
C3078      C3079   1.527       .  S
C3079      F3083   1.385       .  S
C3079      F3084   1.382       .  S
C3079      F3085   1.382       .  S
C3082      F3086   1.385       .  S
C3082      F3087   1.383       .  S
C3082      F3088   1.383       .  S
C3089      C3090   1.409       .  A
C3089      C3094   1.409       .  A
C3089      H3096   1.079       .  S
C3090      C3091   1.414       .  A
C3091      C3092   1.405       .  A
C3091      C3098   1.518       .  S
C3092      C3093   1.407       .  A
C3092      H3097   1.083       .  S
C3093      C3094   1.411       .  A
C3094      C3095   1.515       .  S
C3095      F3099   1.379       .  S
C3095      F3100   1.378       .  S
C3095      F3101   1.383       .  S
C3098      F3102   1.382       .  S
C3098      F3103   1.380       .  S
C3098      F3104   1.385       .  S
C3105      C3106   1.410       .  A
C3105      C3110   1.405       .  A
C3105      H3112   1.082       .  S
C3106      C3107   1.434       .  A
C3107      C3108   1.412       .  A
C3107      C3114   1.523       .  S
C3108      C3109   1.397       .  A
C3108      H3113   1.083       .  S
C3109      C3110   1.412       .  A
C3110      C3111   1.519       .  S
C3111      F3115   1.385       .  S
C3111      F3116   1.382       .  S
C3111      F3117   1.383       .  S
C3114      F3118   1.383       .  S
C3114      F3119   1.384       .  S
C3114      F3120   1.385       .  S
C3121      C3122   1.409       .  A
C3121      H3128   1.084       .  S
C3122      C3123   1.422   1_655  A
C3123      C3130   1.509   1_455  S
C3124      C3125   1.398       .  A
C3124      H3129   1.083       .  S
C3125      C3126   1.411       .  A
C3126      C3127   1.515       .  S
C3127      F3132   1.384       .  S
C3127      F3133   1.383       .  S
C3130      F3134   1.382       .  S
C3130      F3135   1.380       .  S
C3137      C3138   1.401       .  A
C3137      C3142   1.399       .  A
C3137      H3144   1.084       .  S
C3138      C3139   1.411       .  A
C3139      C3140   1.402       .  A
C3139      C3146   1.519       .  S
C3140      C3141   1.403       .  A
C3140      H3145   1.084       .  S
C3141      C3142   1.406       .  A
C3142      C3143   1.514       .  S
C3143      F3147   1.382       .  S
C3143      F3148   1.383       .  S
C3143      F3149   1.383       .  S
C3146      F3150   1.383       .  S
C3146      F3151   1.381       .  S
C3146      F3152   1.384       .  S
C3153      C3154   1.406       .  A
C3153      C3158   1.411       .  A
C3153      H3160   1.082       .  S
C3154      C3155   1.424       .  A
C3155      C3156   1.414       .  A
C3155      C3162   1.518       .  S
C3156      C3157   1.404       .  A
C3156      H3161   1.083       .  S
C3157      C3158   1.420       .  A
C3158      C3159   1.518       .  S
C3159      F3163   1.385       .  S
C3159      F3164   1.382       .  S
C3159      F3165   1.382       .  S
C3162      F3166   1.382       .  S
C3162      F3167   1.384       .  S
C3162      F3168   1.385       .  S
C3169      C3170   1.408       .  A
C3169      C3174   1.406       .  A
C3169      H3176   1.084       .  S
C3170      C3171   1.411       .  A
C3171      C3172   1.401       .  A
C3171      C3178   1.517       .  S
C3172      C3173   1.405       .  A
C3172      H3177   1.083       .  S
C3173      C3174   1.411       .  A
C3174      C3175   1.517       .  S
C3175      F3179   1.383       .  S
C3175      F3180   1.382       .  S
C3175      F3181   1.383       .  S
C3178      F3182   1.382       .  S
C3178      F3183   1.383       .  S
C3178      F3184   1.385       .  S
C3185      C3186   1.400       .  A
C3185      C3190   1.407       .  A
C3185      H3192   1.083       .  S
C3186      C3187   1.419       .  A
C3187      C3188   1.407       .  A
C3187      C3194   1.522   1_556  S
C3188      C3189   1.408       .  A
C3188      H3193   1.082       .  S
C3189      C3190   1.433       .  A
C3190      C3191   1.525       .  S
C3191      F3195   1.386       .  S
C3191      F3196   1.383       .  S
C3191      F3197   1.384       .  S
C3194      F3198   1.382       .  S
C3194      F3199   1.384       .  S
C3194      F3200   1.385       .  S
C3201      C3202   1.398       .  A
C3201      C3206   1.398       .  A
C3201      H3208   1.083       .  S
C3202      C3203   1.409       .  A
C3203      C3204   1.403       .  A
C3203      C3210   1.518       .  S
C3204      C3205   1.410       .  A
C3204      H3209   1.084       .  S
C3205      C3206   1.426       .  A
C3206      C3207   1.528       .  S
C3207      F3211   1.385       .  S
C3207      F3212   1.377       .  S
C3207      F3213   1.374       .  S
C3210      F3214   1.382       .  S
C3210      F3215   1.384       .  S
C3210      F3216   1.385       .  S
C3217      C3218   1.403       .  A
C3217      C3222   1.410       .  A
C3217      H3224   1.084       .  S
C3218      C3219   1.418       .  A
C3219      C3220   1.410       .  A
C3219      C3226   1.519       .  S
C3220      C3221   1.407       .  A
C3220      H3225   1.082       .  S
C3221      C3222   1.425       .  A
C3222      C3223   1.520       .  S
C3223      F3227   1.385       .  S
C3223      F3228   1.383       .  S
C3223      F3229   1.384   1_556  S
C3226      F3230   1.383       .  S
C3226      F3231   1.383       .  S
C3226      F3232   1.384       .  S
C3233      C3238   1.408       .  A
C3234      C3235   1.424   1_565  A
C3235      C3242   1.516   1_545  S
C3236      C3237   1.403       .  A
C3236      H3241   1.083       .  S
C3237      C3238   1.413       .  A
C3238      C3239   1.518       .  S
C3239      F3243   1.384       .  S
C3239      F3244   1.383       .  S
C3239      F3245   1.382       .  S
C3242      F3246   1.382       .  S
C3242      F3247   1.380       .  S
C3242      F3248   1.385   1_565  S
C3249      C3250   1.405       .  A
C3249      C3254   1.404       .  A
C3249      H3256   1.083       .  S
C3250      C3251   1.410       .  A
C3251      C3252   1.396       .  A
C3251      C3258   1.518       .  S
C3252      C3253   1.401       .  A
C3252      H3257   1.086       .  S
C3253      C3254   1.409       .  A
C3254      C3255   1.518       .  S
C3255      F3259   1.383       .  S
C3255      F3260   1.382       .  S
C3255      F3261   1.377       .  S
C3258      F3262   1.380       .  S
C3258      F3263   1.382       .  S
C3258      F3264   1.382       .  S
C3265      C3266   1.399       .  A
C3265      C3270   1.402       .  A
C3265      H3272   1.085       .  S
C3266      C3267   1.424       .  A
C3267      C3268   1.405       .  A
C3267      C3274   1.517       .  S
C3268      C3269   1.398       .  A
C3268      H3273   1.084       .  S
C3269      C3270   1.417       .  A
C3270      C3271   1.513       .  S
C3271      F3275   1.382       .  S
C3271      F3276   1.381       .  S
C3271      F3277   1.382       .  S
C3274      F3278   1.383       .  S
C3274      F3279   1.383       .  S
C3274      F3280   1.385       .  S
C3281      C3282   1.404       .  A
C3281      C3286   1.410       .  A
C3281      H3288   1.080       .  S
C3282      C3283   1.419       .  A
C3283      C3284   1.408       .  A
C3283      C3290   1.518       .  S
C3284      C3285   1.400       .  A
C3284      H3289   1.079       .  S
C3285      C3286   1.415       .  A
C3286      C3287   1.516       .  S
C3287      F3291   1.385       .  S
C3287      F3292   1.383       .  S
C3287      F3293   1.382       .  S
C3290      F3294   1.381       .  S
C3290      F3295   1.382       .  S
C3290      F3296   1.385       .  S
C3297      C3298   1.401       .  A
C3297      H3304   1.081       .  S
C3298      C3299   1.413       .  A
C3299      C3306   1.517       .  S
C3300      C3301   1.408       .  A
C3300      H3305   1.084       .  S
C3301      C3302   1.430       .  A
C3302      C3303   1.521       .  S
C3303      F3308   1.383   1_554  S
C3303      F3309   1.384       .  S
C3306      F3310   1.384       .  S
C3306      F3311   1.382       .  S
C3313      C3318   1.411   1_455  A
C3313      H3320   1.083       .  S
C3314      C3315   1.418       .  A
C3315      C3316   1.403       .  A
C3315      C3322   1.524       .  S
C3316      H3321   1.082       .  S
C3317      C3318   1.419       .  A
C3318      C3319   1.519       .  S
C3319      F3323   1.384       .  S
C3319      F3324   1.383       .  S
C3319      F3325   1.383       .  S
C3322      F3326   1.383       .  S
C3322      F3327   1.380       .  S
C3322      F3328   1.383       .  S
C3329      C3330   1.408       .  A
C3329      H3336   1.083       .  S
C3330      C3331   1.425       .  A
C3331      C3338   1.518       .  S
C3332      C3333   1.399       .  A
C3332      H3337   1.084       .  S
C3333      C3334   1.416       .  A
C3334      C3335   1.517       .  S
C3335      F3339   1.385       .  S
C3335      F3340   1.383       .  S
C3335      F3341   1.382       .  S
C3338      F3342   1.383       .  S
C3338      F3343   1.384       .  S
C3338      F3344   1.385       .  S
C3345      C3346   1.402       .  A
C3345      C3350   1.392       .  A
C3345      H3352   1.084       .  S
C3346      C3347   1.419       .  A
C3347      C3348   1.412       .  A
C3347      C3354   1.519       .  S
C3348      C3349   1.405       .  A
C3348      H3353   1.083       .  S
C3349      C3350   1.405       .  A
C3350      C3351   1.509       .  S
C3351      F3355   1.383       .  S
C3351      F3356   1.384       .  S
C3351      F3357   1.383       .  S
C3354      F3358   1.383       .  S
C3354      F3359   1.384       .  S
C3354      F3360   1.382       .  S
