geometry optimzed in LAMMPS
_audit_creation_date              2020-11-30 
_audit_creation_method            'lammps2cif' 
_symmetry_space_group_name_H-M    'P1' 
_symmetry_Int_Tables_number       1 
_symmetry_cell_setting            triclinic 
loop_ 
_symmetry_equiv_pos_as_xyz 
  x,y,z 
_cell_length_a                    41.93210907 
_cell_length_b                    41.96701280042882 
_cell_length_c                    39.7566107540129 
_cell_angle_alpha                 88.55079894842429 
_cell_angle_beta                  91.62468135068276 
_cell_angle_gamma                 119.8400051669923 
loop_ 
_atom_site_label 
_atom_site_type_symbol 
_atom_site_fract_x 
_atom_site_fract_y 
_atom_site_fract_z 
_atom_site_charge 
O1          O  0.33009526  0.36332380  0.54268963    -0.79800
O2          O  0.27726834  0.39087535  0.67766184    -0.64400
O3          O  0.32175423  0.40680875  0.59114055    -1.11000
C4          C  0.41378783  0.39538318  0.65429617     1.07100
O5          O  0.33111697  0.43273138  0.69645357    -0.77700
O6          O  0.39657568  0.46193446  0.66834892    -0.65200
Ni7        Ni  0.29489587  0.37864484  0.55321929     1.34900
C8          C  0.40477109  0.47403969  0.63847903     0.85900
O9          O  0.25948556  0.40628134  0.61492929    -0.78200
O10         O  0.25832658  0.39249284  0.56006019    -0.88500
C11         C  0.29749251  0.41037538  0.70174095     0.85400
O12         O  0.26489778  0.33233316  0.57521949    -0.66700
O13         O  0.39995638  0.39984541  0.68079683    -0.86000
C14         C  0.25429296  0.32348486  0.60536604     0.86300
C15         C  0.24651942  0.40232976  0.58476139     1.07800
H16         H  0.32758637  0.36469893  0.65345315     0.39600
O17         O  0.33739052  0.39058644  0.64877059    -1.08600
O18         O  0.39147846  0.45368286  0.61274303    -0.65300
Ni19       Ni  0.36177827  0.40095768  0.60695076     1.26300
O20         O  0.26614727  0.34625714  0.62919377    -0.65500
O21         O  0.40139126  0.39498412  0.62452274    -0.77800
C22         C  0.36488996  0.38375659  0.54102798     0.85700
O23         O  0.38243517  0.40807915  0.56306996    -0.65000
Ni24       Ni  0.36452497  0.41536123  0.68787404     1.27400
Ni25       Ni  0.29792419  0.39830042  0.63335519     1.26100
H26         H  0.33087514  0.43226514  0.58494016     0.40200
O27         O  0.37586213  0.30104606  0.46748368    -0.79800
O28         O  0.40447927  0.28294056  0.31779748    -0.64400
O29         O  0.41809766  0.31009914  0.41050344    -1.11000
C30         C  0.39837293  0.40518802  0.36588068     1.07100
O31         O  0.44763476  0.33961893  0.30746909    -0.77700
O32         O  0.47132917  0.39656460  0.34828087    -0.65200
Ni33       Ni  0.39587336  0.27442763  0.44533182     1.34900
C34         C  0.48069259  0.40094449  0.37917471     0.85900
O35         O  0.42133256  0.25625869  0.37153661    -0.78200
O36         O  0.41364696  0.24389143  0.42688345    -0.88500
C37         C  0.42879602  0.30640588  0.29858792     0.85400
O38         O  0.34943846  0.24598417  0.42354958    -0.66700
O39         O  0.40773707  0.39826532  0.33794956    -0.86000
C40         C  0.33786420  0.24186095  0.39322074     0.86300
C41         C  0.42107148  0.23799538  0.39744077     1.07800
H42         H  0.37425925  0.32325312  0.35225567     0.39600
O43         O  0.39999395  0.33345944  0.35816700    -1.08600
O44         O  0.45827790  0.38399271  0.40269897    -0.65300
Ni45       Ni  0.40626306  0.34865579  0.40374776     1.26300
O46         O  0.35826434  0.25963835  0.36859305    -0.65500
O47         O  0.39580321  0.38777808  0.39359048    -0.77800
C48         C  0.38692532  0.33503583  0.47144198     0.85700
O49         O  0.40852177  0.35946002  0.45081193    -0.65000
Ni50       Ni  0.42667545  0.36781581  0.32390651     1.27400
Ni51       Ni  0.41020880  0.29456734  0.36459464     1.26100
H52         H  0.44422614  0.32125568  0.41491783     0.40200
O53         O  0.16231584  0.04714799  0.47479678    -0.79800
O54         O  0.21286374  0.10123768  0.32634612    -0.64400
O55         O  0.16995552  0.08638759  0.41378260    -1.11000
C56         C  0.07704731  0.47220841  0.35409781     1.07100
O57         O  0.15695174  0.07985773  0.30421886    -0.77700
O58         O  0.09271380  0.04465416  0.33470330    -0.65200
Ni59       Ni  0.19630486  0.09462127  0.45496757     1.34900
C60         C  0.08582412  0.05651379  0.36094199     0.85900
O61         O  0.23100569  0.14393954  0.38182896    -0.78200
O62         O  0.23234145  0.14259800  0.43877224    -0.88500
C63         C  0.19158434  0.09822523  0.30147613     0.85400
O64         O  0.22621469  0.07482869  0.44265002    -0.66700
O65         O  0.09179438  0.48695888  0.32595869    -0.86000
C66         C  0.23836946  0.07132408  0.41501148     0.86300
C67         C  0.24416214  0.15877251  0.41038567     1.07800
H68         H  0.16746238  0.02921329  0.36592634     0.39600
O69         O  0.15627770  0.04452480  0.36435217    -1.08600
O70         O  0.10109385  0.05807260  0.38937399    -0.65300
Ni71       Ni  0.13117875  0.03786604  0.40534143     1.26300
O72         O  0.22817394  0.07787965  0.38624507    -0.65500
O73         O  0.08914769  0.48738089  0.38256518    -0.77800
C74         C  0.12729694  0.02875466  0.47309703     0.85700
O75         O  0.10989729  0.03245706  0.44824385    -0.65000
Ni76       Ni  0.12869241  0.03173032  0.32359152     1.27400
Ni77       Ni  0.19389319  0.09434398  0.37163036     1.26100
H78         H  0.15980614  0.10261415  0.41392236     0.40200
O79         O  0.11274432  0.42145061  0.52454366    -0.79800
O80         O  0.10533398  0.38658482  0.67390833    -0.64400
O81         O  0.07425361  0.38797858  0.58356418    -1.11000
C82         C  0.08425296  0.00053925  0.63339607     1.07100
O83         O  0.06051599  0.39567642  0.68896765    -0.77700
O84         O  0.02084649  0.41219853  0.64653146    -0.65200
Ni85       Ni  0.09425259  0.37457836  0.54792894     1.34900
C86         C  0.00898338  0.40825367  0.61641205     0.85900
O87         O  0.08546065  0.33847196  0.62442239    -0.78200
O88         O  0.07769033  0.32688242  0.56892138    -0.88500
C89         C  0.08523026  0.38745191  0.69641488     0.85400
O90         O  0.14237911  0.39083178  0.56650184    -0.66700
O91         O  0.07461553  0.48429803  0.64468583    -0.86000
C92         C  0.15800689  0.40477162  0.59443689     0.86300
C93         C  0.07948710  0.31751775  0.59956795     1.07800
H94         H  0.12028741  0.45171253  0.63452685     0.39600
O95         O  0.09471913  0.43346986  0.63114072    -1.08600
O96         O  0.02982738  0.41735758  0.59113741    -0.65300
Ni97       Ni  0.08202270  0.43694110  0.58563065     1.26300
O98         O  0.14142184  0.40902370  0.61850036    -0.65500
O99         O  0.08892408  0.48555201  0.59022864    -0.77800
C100        C  0.09857275  0.44198908  0.51971274     0.85700
O101        O  0.07389516  0.44002025  0.53874296    -0.65000
Ni102      Ni  0.06860238  0.43975316  0.66571447     1.27400
Ni103      Ni  0.09027415  0.38616210  0.62833567     1.26100
H104        H  0.04809334  0.37101568  0.58264208     0.40200
O105        O  0.05435619  0.14843346  0.53003834    -0.79800
O106        O  0.11352660  0.20786004  0.67754443    -0.64400
O107        O  0.09303954  0.15807309  0.59242398    -1.11000
C108        C  0.48193434  0.07054893  0.65126850     1.07100
O109        O  0.09013960  0.15382229  0.70368990    -0.77700
O110        O  0.05494620  0.08825236  0.67564669    -0.65200
Ni111      Ni  0.10195843  0.18212833  0.54978462     1.34900
C112        C  0.06321845  0.07795686  0.64919941     0.85900
O113        O  0.15404271  0.21981288  0.62121926    -0.78200
O114        O  0.15065052  0.21780109  0.56447214    -0.88500
C115        C  0.10926158  0.18851652  0.70422775     0.85400
O116        O  0.08382382  0.21403978  0.56036465    -0.66700
O117        O  0.50221104  0.07795329  0.67752145    -0.86000
C118        C  0.08193345  0.22849717  0.58732887     0.86300
C119        C  0.16812501  0.23076479  0.59209509     1.07800
H120        H  0.03957801  0.16215255  0.64141409     0.39600
O121        O  0.05382437  0.14980793  0.64302240    -1.08600
O122        O  0.06173185  0.09021877  0.61988580    -0.65300
Ni123      Ni  0.04372226  0.12212719  0.60295200     1.26300
O124        O  0.08911699  0.21992492  0.61660557    -0.65500
O125        O  0.49127075  0.09114446  0.62533370    -0.77800
C126        C  0.03312061  0.11405332  0.53412081     0.85700
O127        O  0.03385006  0.09761882  0.56103471    -0.65000
Ni128      Ni  0.04171021  0.12432724  0.68513772     1.27400
Ni129      Ni  0.10405535  0.18518279  0.63340168     1.26100
H130        H  0.10785349  0.14631730  0.59300316     0.40200
O131        O  0.42839472  0.09041049  0.47783405    -0.79800
O132        O  0.39509931  0.10068934  0.32417613    -0.64400
O133        O  0.39781068  0.06301827  0.41291418    -1.11000
C134        C  0.00792654  0.07539129  0.37895750     1.07100
O135        O  0.40230623  0.05561494  0.30621763    -0.77700
O136        O  0.42109852  0.01408204  0.34465653    -0.65200
Ni137      Ni  0.38321646  0.07716346  0.45207839     1.34900
C138        C  0.41768637  0.00104111  0.37431386     0.85900
O139        O  0.34748629  0.07650430  0.37484472    -0.78200
O140        O  0.33668712  0.06581312  0.43025891    -0.88500
C141        C  0.39447594  0.08084243  0.30018406     0.85400
O142        O  0.40328919  0.12733026  0.44028640    -0.66700
O143        O  0.99062564  0.06412948  0.35097295    -0.86000
C144        C  0.41589415  0.14648485  0.41377922     0.86300
C145        C  0.32694295  0.06916342  0.40008134     1.07800
H146        H  0.46063870  0.11392820  0.36244857     0.39600
O147        O  0.44262933  0.08817001  0.36478019    -1.08600
O148        O  0.42807633  0.02102371  0.40014655    -0.65300
Ni149      Ni  0.44720044  0.07225590  0.40894302     1.26300
O150        O  0.41678443  0.13325797  0.38532538    -0.65500
O151        O  0.99484020  0.08338804  0.40377727    -0.77800
C152        C  0.44995092  0.07709440  0.47879284     0.85700
O153        O  0.45151053  0.05907557  0.45448883    -0.65000
Ni154      Ni  0.44743205  0.06337883  0.32760259     1.27400
Ni155      Ni  0.39539709  0.08301501  0.36956009     1.26100
H156        H  0.38129255  0.03685099  0.41148273     0.40200
O157        O  0.34409144  0.45064967  0.80282964    -0.79800
O158        O  0.37666679  0.40196863  0.94142546    -0.64400
O159        O  0.34566378  0.40179017  0.84977586    -1.11000
C160        C  0.25350001  0.41805100  0.90017348     1.07100
O161        O  0.31893123  0.36349933  0.95502829    -0.77700
O162        O  0.25881115  0.34607883  0.91758046    -0.65200
Ni163      Ni  0.37766809  0.43404333  0.81673917     1.34900
C164        C  0.25451020  0.33496794  0.88753138     0.85900
O165        O  0.40291225  0.39652224  0.88206088    -0.78200
O166        O  0.41320229  0.41941305  0.82881874    -0.88500
C167        C  0.35320456  0.37649280  0.96017159     0.85400
O168        O  0.40270693  0.47689322  0.84327032    -0.66700
O169        O  0.26552002  0.41273048  0.92841007    -0.86000
C170        C  0.41054322  0.48236727  0.87437036     0.86300
C171        C  0.42093116  0.40570679  0.85473365     1.07800
H172        H  0.33552587  0.43957266  0.90939332     0.39600
O173        O  0.32476350  0.41378875  0.90443781    -1.08600
O174        O  0.27327309  0.35532405  0.86314697    -0.65300
Ni175      Ni  0.30493257  0.40796371  0.85970280     1.26300
O176        O  0.39800195  0.45661575  0.89629416    -0.65500
O177        O  0.26486688  0.41501959  0.87160888    -0.77800
C178        C  0.31148966  0.42885304  0.79301276     0.85700
O179        O  0.28931042  0.40421095  0.81306538    -0.65000
Ni180      Ni  0.29339433  0.38913354  0.94056903     1.27400
Ni181      Ni  0.36361063  0.40430015  0.89485646     1.26100
H182        H  0.33663051  0.37709033  0.84194011     0.40200
O183        O  0.41577979  0.32733141  0.21171242    -0.79800
O184        O  0.42547205  0.37425927  0.05677915    -0.64400
O185        O  0.39946243  0.33290315  0.14528167    -1.11000
C186        C  0.42419311  0.24436605  0.09885575     1.07100
O187        O  0.38230953  0.32085416  0.03750051    -0.77700
O188        O  0.34989222  0.25947016  0.07836832    -0.65200
Ni189      Ni  0.41841498  0.36523338  0.18274248     1.34900
C190        C  0.34207072  0.24781544  0.10856474     0.85900
O191        O  0.40019852  0.39202759  0.10827419    -0.78200
O192        O  0.42191034  0.40800175  0.16015242    -0.88500
C193        C  0.40217787  0.35567645  0.03409127     0.85400
O194        O  0.46725467  0.37946150  0.17130823    -0.66700
O195        O  0.41073100  0.25150550  0.07238179    -0.86000
C196        C  0.48281032  0.39371578  0.14362393     0.86300
C197        C  0.41046758  0.41422715  0.13225966     1.07800
H198        H  0.45006928  0.32837040  0.08913124     0.39600
O199        O  0.42422023  0.31772579  0.09379302    -1.08600
O200        O  0.36548774  0.25981668  0.13237553    -0.65300
Ni201      Ni  0.41567174  0.29724264  0.13805702     1.26300
O202        O  0.46496546  0.38886362  0.11552767    -0.65500
O203        O  0.43022007  0.26156437  0.12669649    -0.77800
C204        C  0.41124919  0.29517371  0.21062329     0.85700
O205        O  0.40906681  0.27884859  0.18351337    -0.65000
Ni206      Ni  0.39693016  0.28692666  0.05716332     1.27400
Ni207      Ni  0.41342398  0.35542085  0.10159643     1.26100
H208        H  0.37296027  0.32044799  0.14630643     0.40200
O209        O  0.16359734  0.08529941  0.20852622    -0.79800
O210        O  0.11883560  0.03538205  0.05826904    -0.64400
O211        O  0.15704054  0.04937447  0.14814473    -1.11000
C212        C  0.24873503  0.16150877  0.09701453     1.07100
O213        O  0.17267763  0.04553824  0.04149322    -0.77700
O214        O  0.23836675  0.08227468  0.07601815    -0.65200
Ni215      Ni  0.12594610  0.04258067  0.18496611     1.34900
C216        C  0.24507502  0.07525988  0.10584756     0.85900
O217        O  0.09946365  0.49128965  0.10511062    -0.78200
O218        O  0.08087120  0.50073508  0.15348936    -0.88500
C219        C  0.13800057  0.03069678  0.03714922     0.85400
O220        O  0.10619287  0.07157792  0.16679703    -0.66700
O221        O  0.23547933  0.14512198  0.06922008    -0.86000
C222        C  0.09422563  0.07207388  0.13721417     0.86300
C223        C  0.07572798  0.48149813  0.12760827     1.07800
H224        H  0.16565498  0.10617103  0.09233032     0.39600
O225        O  0.17535617  0.08966250  0.09540973    -1.08600
O226        O  0.22802540  0.07651204  0.13108854    -0.65300
Ni227      Ni  0.19773103  0.09783078  0.13895064     1.26300
O228        O  0.10321181  0.06068432  0.11169532    -0.65500
O229        O  0.23803026  0.14635028  0.12627783    -0.77800
C230        C  0.19820454  0.09778296  0.21049016     0.85700
O231        O  0.21716037  0.10340569  0.18429553    -0.60200
Ni232      Ni  0.20368578  0.09528959  0.05694824     1.27400
Ni233      Ni  0.13604112  0.04166475  0.10373772     1.26100
H234        H  0.16616763  0.03245896  0.15180789     0.40200
O235        O  0.05082760  0.40053023  0.79505562    -0.79800
O236        O  0.09768711  0.46546878  0.93614282    -0.64400
O237        O  0.10053919  0.44409199  0.84408070    -1.11000
C238        C  0.07912610  0.32827846  0.88633890     1.07100
O239        O  0.13082232  0.43939691  0.95193899    -0.77700
O240        O  0.15088589  0.40403615  0.91079133    -0.65200
Ni241      Ni  0.07199074  0.45028394  0.80992025     1.34900
C242        C  0.16262473  0.41297670  0.88104784     0.85900
O243        O  0.10793807  0.50466553  0.87813065    -0.78200
O244        O  0.09125553  0.50023734  0.82297065    -0.88500
C245        C  0.12035790  0.46266028  0.95624096     0.85400
O246        O  0.02870893  0.43483636  0.83463056    -0.66700
O247        O  0.08457231  0.34173260  0.91585791    -0.86000
C248        C  0.02115761  0.43172224  0.86556772     0.86300
C249        C  0.10247780  0.01725638  0.86339227     1.07800
H250        H  0.05827280  0.39042109  0.90090390     0.39600
O251        O  0.08434867  0.40471773  0.89690249    -1.08600
O252        O  0.14279991  0.41294161  0.85624529    -0.65300
Ni253      Ni  0.09079349  0.39531169  0.85163349     1.26300
O254        O  0.04510108  0.43943673  0.88890563    -0.65500
O255        O  0.08079587  0.34626266  0.85970304    -0.77800
C256        C  0.07007988  0.38680186  0.78610715     0.85700
O257        O  0.09510626  0.38797448  0.80537355    -0.65000
Ni258      Ni  0.10640210  0.39123299  0.93243789     1.27400
Ni259      Ni  0.09694698  0.45509906  0.88931513     1.26100
H260        H  0.12590449  0.45924074  0.83770576     0.40200
O261        O  0.10403453  0.16647194  0.80126444    -0.79800
O262        O  0.03152068  0.11845965  0.94361703    -0.64400
O263        O  0.05689360  0.15622140  0.85368290    -1.11000
C264        C  0.17051771  0.24250937  0.90539991     1.07100
O265        O  0.05844412  0.17457170  0.96494846    -0.77700
O266        O  0.09976579  0.23709395  0.93247178    -0.65200
Ni267      Ni  0.05798462  0.12709605  0.81854872     1.34900
C268        C  0.08604038  0.24283498  0.90581942     0.85900
O269        O  0.50734873  0.10012143  0.89280683    -0.78200
O270        O  0.51956727  0.09306128  0.83920467    -0.88500
C271        C  0.03334789  0.14106734  0.96545007     0.85400
O272        O  0.08413076  0.10695725  0.84347183    -0.66700
O273        O  0.15754292  0.22499891  0.93296617    -0.86000
C274        C  0.07825649  0.09274724  0.87295454     0.86300
C275        C  0.49844767  0.08348198  0.86453892     1.07800
H276        H  0.10901527  0.15966588  0.90827053     0.39600
O277        O  0.09423033  0.17143544  0.90774395    -1.08600
O278        O  0.08159635  0.22560099  0.87840922    -0.65300
Ni279      Ni  0.10369961  0.19662911  0.86542668     1.26300
O280        O  0.06038721  0.09908484  0.89452371    -0.65500
O281        O  0.15159295  0.23621165  0.87811339    -0.77800
C282        C  0.10971992  0.19897817  0.79599013     0.85700
O283        O  0.10950395  0.21757168  0.82071644    -0.65000
Ni284      Ni  0.10759386  0.19840303  0.94780446     1.27400
Ni285      Ni  0.04431307  0.13478042  0.89757864     1.26100
H286        H  0.04033491  0.16509850  0.84696217     0.40200
O287        O  0.39430966  0.03833180  0.20083032    -0.79800
O288        O  0.46470987  0.06905392  0.06470573    -0.64400
O289        O  0.44102570  0.08403480  0.15253940    -1.11000
C290        C  0.33687794  0.07729126  0.09508251     1.07100
O291        O  0.45623907  0.11373502  0.04429434    -0.77700
O292        O  0.42649913  0.14593547  0.08247928    -0.65200
Ni293      Ni  0.44459806  0.05639458  0.18967863     1.34900
C294        C  0.42408763  0.15361722  0.11276015     0.85900
O295        O  0.00262816  0.09179410  0.12635265    -0.78200
O296        O  0.99192839  0.07513856  0.18104055    -0.88500
C297        C  0.47043542  0.09308238  0.04226266     0.85400
O298        O  0.42950055  0.01080983  0.16829494    -0.66700
O299        O  0.35808553  0.08846350  0.06981530    -0.86000
C300        C  0.42438310  0.00093123  0.13783479     0.86300
C301        C  0.01213378  0.08458499  0.15505360     1.07800
H302        H  0.39051289  0.04556562  0.08997075     0.39600
O303        O  0.40714879  0.07071706  0.09624781    -1.08600
O304        O  0.41320393  0.12989642  0.13656357    -0.65300
Ni305      Ni  0.39340296  0.07736403  0.14003962     1.26300
O306        O  0.43052277  0.02306309  0.11335612    -0.65500
O307        O  0.34617859  0.07053655  0.12434325    -0.77800
C308        C  0.38277861  0.05985208  0.20852706     0.85700
O309        O  0.38179116  0.08170424  0.18621321    -0.65000
Ni310      Ni  0.40725620  0.10033943  0.05931608     1.27400
Ni311      Ni  0.45345520  0.07563059  0.10926880     1.26100
H312        H  0.45727304  0.10961796  0.15766052     0.40200
C313        C  0.49625671  0.09887064  0.01484307    -0.15300
C314        C  0.00427777  0.13065614  0.99051283    -0.30500
H315        H  0.50237043  0.07728279  0.00926094     0.13700
H316        H  0.99317699  0.14905374  0.99235876     0.14300
C317        C  0.07689869  0.27230312  0.90841056    -0.15300
C318        C  0.07359997  0.29091723  0.88204874    -0.30500
H319        H  0.07866502  0.28273092  0.93356593     0.13700
H320        H  0.07279101  0.28140240  0.85669814     0.14300
C321        C  0.10505845  0.05365011  0.86014562    -0.15300
C322        C  0.09035164  0.06581369  0.88253551    -0.30500
H323        H  0.11108675  0.06623487  0.83519644     0.13700
H324        H  0.08205421  0.05188976  0.90680293     0.14300
C325        C  0.11963210  0.00584796  0.00877977    -0.15300
C326        C  0.13776910  0.48794766  0.98456791    -0.30500
H327        H  0.09527046  0.00459364  0.99717436     0.13700
H328        H  0.16352543  0.49084468  0.99442042     0.14300
C329        C  0.04756048  0.08515817  0.15884130    -0.15300
C330        C  0.06625567  0.08359069  0.13248076    -0.30500
H331        H  0.05570426  0.08159278  0.18422981     0.13700
H332        H  0.05710322  0.08521671  0.10697248     0.14300
C333        C  0.27577122  0.06771660  0.11241946    -0.15300
C334        C  0.30043480  0.07409569  0.08866537    -0.30500
H335        H  0.28079676  0.06153491  0.13807092     0.13700
H336        H  0.29544049  0.08118627  0.06332254     0.14300
C337        C  0.03991501  0.44767171  0.12276316    -0.15300
C338        C  0.01681319  0.43336998  0.14849445    -0.30500
H339        H  0.03167365  0.43598818  0.09781118     0.13700
H340        H  0.02616535  0.44507230  0.17336402     0.14300
C341        C  0.27943085  0.19954508  0.09310723    -0.15300
C342        C  0.30513411  0.21695588  0.11692033    -0.30500
H343        H  0.28426927  0.21112735  0.06774589     0.13700
H344        H  0.30107515  0.20514557  0.14215468     0.14300
C345        C  0.41188003  0.44982321  0.12667702    -0.15300
C346        C  0.41374140  0.47048259  0.15267598    -0.30500
H347        H  0.41463262  0.46046539  0.10108143     0.13700
H348        H  0.41610202  0.95607811  0.10455783     0.14300
C349        C  0.43170360  0.21363243  0.09522240    -0.15300
C350        C  0.43093797  0.19116052  0.12034941    -0.30500
H351        H  0.43176603  0.20559048  0.06944981     0.13700
H352        H  0.42878693  0.19762216  0.14618296     0.14300
C353        C  0.20847762  0.27352966  0.90671025    -0.15300
C354        C  0.22432049  0.29727176  0.88088738    -0.30500
H355        H  0.22177055  0.28006334  0.93143532     0.13700
H356        H  0.21206199  0.29086718  0.85577474     0.14300
C357        C  0.44807532  0.02290169  0.88244745    -0.15300
C358        C  0.46251602  0.05036651  0.85960222    -0.30500
H359        H  0.45031046  0.52414254  0.90982959     0.13700
H360        H  0.45181907  0.04526811  0.83388329     0.14300
C361        C  0.20052472  0.42121593  0.87517743    -0.15300
C362        C  0.22299277  0.42558011  0.90162661    -0.30500
H363        H  0.20790946  0.41829446  0.84992347     0.13700
H364        H  0.21520031  0.42875639  0.92665049     0.14300
C365        C  0.45408240  0.40271190  0.85233543    -0.15300
C366        C  0.47926449  0.41313984  0.87748465    -0.30500
H367        H  0.46163818  0.39992333  0.82708906     0.13700
H368        H  0.97719849  0.42618740  0.89911791     0.14300
C369        C  0.36404995  0.35862507  0.98719309    -0.15300
C370        C  0.39586772  0.37495988  0.00494243    -0.30500
H371        H  0.34308107  0.33107110  0.99456792     0.13700
H372        H  0.41611529  0.40341020  0.99960771     0.14300
C373        C  0.37108004  0.05755744  0.24371299    -0.15300
C374        C  0.38572737  0.08645545  0.26466675    -0.30500
H375        H  0.35968619  0.03029689  0.25508601     0.13700
H376        H  0.39803592  0.11430224  0.25464028     0.14300
C377        C  0.11243989  0.21288712  0.76062620    -0.15300
C378        C  0.12865474  0.20395281  0.73664169    -0.30500
H379        H  0.09362687  0.22261422  0.75308277     0.13700
H380        H  0.14665604  0.19357159  0.74524543     0.14300
C381        C  0.00628752  0.09380510  0.50692070    -0.15300
C382        C  0.47589153  0.08489279  0.50780325    -0.30500
H383        H  0.01699624  0.09609409  0.48186275     0.13700
H384        H  0.48462777  0.06514703  0.51464082     0.14300
C385        C  0.09046704  0.37996057  0.73171862    -0.15300
C386        C  0.06288816  0.37104203  0.75274394    -0.30500
H387        H  0.11830199  0.38956503  0.74119331     0.13700
H388        H  0.03543757  0.36200013  0.74240806     0.14300
C389        C  0.07293808  0.25826494  0.58278794    -0.15300
C390        C  0.07711064  0.28161651  0.60716266    -0.30500
H391        H  0.06717089  0.26393721  0.55718892     0.13700
H392        H  0.08328706  0.27640209  0.63276527     0.14300
C393        C  0.08390261  0.03552942  0.62890025    -0.15300
C394        C  0.07316159  0.04895576  0.65380798    -0.30500
H395        H  0.08857768  0.04808587  0.60396582     0.13700
H396        H  0.06888842  0.03637636  0.67872742     0.14300
C397        C  0.21561802  0.10391877  0.24463564    -0.15300
C398        C  0.20480674  0.11794766  0.26900883    -0.30500
H399        H  0.22853519  0.08772554  0.25157418     0.13700
H400        H  0.19113755  0.13311813  0.26077744     0.14300
C401        C  0.10704140  0.99994657  0.49867219    -0.15300
C402        C  0.11479103  0.47122465  0.49381180    -0.30500
H403        H  0.08111791  0.99598138  0.50777380     0.13700
H404        H  0.13959997  0.47517260  0.48197554     0.14300
C405        C  0.05728793  0.06705191  0.35740171    -0.15300
C406        C  0.04348601  0.07622571  0.38320656    -0.30500
H407        H  0.04460763  0.06349883  0.33252325     0.13700
H408        H  0.05591978  0.08007705  0.40820392     0.14300
C409        C  0.26752669  0.06130128  0.41813248    -0.15300
C410        C  0.29089675  0.06689697  0.39344136    -0.30500
H411        H  0.27333101  0.05435863  0.44323221     0.13700
H412        H  0.28564418  0.07449614  0.36841363     0.14300
C413        C  0.43621474  0.29698348  0.26550421    -0.15300
C414        C  0.40886299  0.27745158  0.24350869    -0.30500
H415        H  0.46282378  0.31678927  0.25529936     0.13700
H416        H  0.38145465  0.25865541  0.25258048     0.14300
C417        C  0.40592837  0.46124733  0.39056637    -0.15300
C418        C  0.39350211  0.43744564  0.36518896    -0.30500
H419        H  0.40755312  0.95195177  0.40416004     0.13700
H420        H  0.38857699  0.44636051  0.34063302     0.14300
C421        C  0.42735491  0.18558756  0.41749829    -0.15300
C422        C  0.42670490  0.20645149  0.39186716    -0.30500
H423        H  0.42905573  0.19507227  0.44304274     0.13700
H424        H  0.42446722  0.19708364  0.36621144     0.14300
C425        C  0.01832426  0.42305003  0.37803464    -0.15300
C426        C  0.04250674  0.43672981  0.35259778    -0.30500
H427        H  0.02605777  0.43477843  0.40299631     0.13700
H428        H  0.03423444  0.42425611  0.32792699     0.14300
C429        C  0.29933607  0.21292101  0.38640865    -0.15300
C430        C  0.27645880  0.19597633  0.41215137    -0.30500
H431        H  0.29151837  0.20227032  0.36107172     0.13700
H432        H  0.28484711  0.20721918  0.43727169     0.14300
C433        C  0.28413073  0.40552387  0.73666008    -0.15300
C434        C  0.30195110  0.43362022  0.75799809    -0.30500
H435        H  0.26660372  0.37779158  0.74616042     0.13700
H436        H  0.31950700  0.46080132  0.74722014     0.14300
C437        C  0.20603897  0.26172028  0.58853424    -0.15300
C438        C  0.22442084  0.28573345  0.61313604    -0.30500
H439        H  0.21652786  0.26831958  0.56310353     0.13700
H440        H  0.21365555  0.27986452  0.63846726     0.14300
C441        C  0.43293821  0.01381181  0.62426321    -0.15300
C442        C  0.44725696  0.03520046  0.65157820    -0.30500
H443        H  0.44233177  0.52341074  0.60856924     0.13700
H444        H  0.43694127  0.02363927  0.67632563     0.14300
C445        C  0.21452375  0.40692653  0.57711227    -0.15300
C446        C  0.19635051  0.41356862  0.60058026    -0.30500
H447        H  0.20298803  0.40013615  0.55173909     0.13700
H448        H  0.20764891  0.42046540  0.62600520     0.14300
C449        C  0.44785880  0.39361019  0.65849606    -0.15300
C450        C  0.46945125  0.39845272  0.63220976    -0.30500
H451        H  0.45809199  0.39417015  0.68402580     0.13700
H452        H  0.96059158  0.39895442  0.58562816     0.14300
C453        C  0.38496212  0.37760611  0.51392589    -0.15300
C454        C  0.37067934  0.34440274  0.49959131    -0.30500
H455        H  0.41158553  0.39989565  0.50627850     0.13700
H456        H  0.34528626  0.32194444  0.50946385     0.14300
O457        O  0.32468151  0.86621639  0.53154789    -0.79800
O458        O  0.28417681  0.89315226  0.67481923    -0.64400
O459        O  0.31979105  0.90761472  0.58462970    -1.11000
C460        C  0.41525559  0.89358069  0.63818816     1.07100
O461        O  0.33997843  0.93370368  0.69047648    -0.77700
O462        O  0.40235906  0.96033648  0.65779943    -0.65200
Ni463      Ni  0.28891931  0.87821610  0.54895009     1.34900
C464        C  0.40655849  0.97393860  0.62833430     0.85900
O465        O  0.26176641  0.90929176  0.61572540    -0.78200
O466        O  0.25113937  0.88877529  0.56233383    -0.88500
C467        C  0.30649395  0.91298037  0.69758018     0.85400
O468        O  0.26522168  0.83184850  0.57234420    -0.66700
O469        O  0.40240649  0.89579648  0.66621751    -0.86000
C470        C  0.25486926  0.82409618  0.60265323     0.86300
C471        C  0.24345692  0.90136177  0.58804122     1.07800
H472        H  0.32984262  0.86450026  0.64326765     0.39600
O473        O  0.33988458  0.89058469  0.63959962    -1.08600
O474        O  0.39036090  0.95468446  0.60253750    -0.65300
Ni475      Ni  0.36109705  0.90204260  0.59619726     1.26300
O476        O  0.26639566  0.84797678  0.62555798    -0.65500
O477        O  0.40243143  0.89647003  0.60947483    -0.77800
C478        C  0.35957423  0.88617637  0.52919426     0.85700
O479        O  0.37829492  0.91027318  0.55104848    -0.65000
Ni480      Ni  0.37018843  0.91388336  0.67757212     1.27400
Ni481      Ni  0.30039543  0.89977796  0.62899191     1.26100
H482        H  0.32816444  0.93289498  0.57825814     0.40200
O483        O  0.36998942  0.80158357  0.45775409    -0.79800
O484        O  0.40203244  0.77980969  0.31065051    -0.64400
O485        O  0.41355987  0.80888543  0.40268812    -1.11000
C486        C  0.39576901  0.90447380  0.35467437     1.07100
O487        O  0.44457930  0.83687178  0.30019135    -0.77700
O488        O  0.46692768  0.89483423  0.33839892    -0.65200
Ni489      Ni  0.39132253  0.77468609  0.43837116     1.34900
C490        C  0.47703520  0.89899797  0.36906960     0.85900
O491        O  0.41687620  0.75344027  0.36637864    -0.78200
O492        O  0.41023489  0.74411150  0.42225592    -0.88500
C493        C  0.42708745  0.80340311  0.29198994     0.85400
O494        O  0.34559879  0.74449874  0.41635212    -0.66700
O495        O  0.40304472  0.89539778  0.32673849    -0.86000
C496        C  0.33410736  0.73961108  0.38600892     0.86300
C497        C  0.41692062  0.73640979  0.39321057     1.07800
H498        H  0.37056392  0.82087479  0.34349248     0.39600
O499        O  0.39633483  0.83125588  0.34933131    -1.08600
O500        O  0.45513156  0.88213049  0.39300296    -0.65300
Ni501      Ni  0.40274960  0.84796724  0.39436067     1.26300
O502        O  0.35428893  0.75735132  0.36119556    -0.65500
O503        O  0.39381357  0.88801263  0.38285757    -0.77800
C504        C  0.38157560  0.83576054  0.46121660     0.85700
O505        O  0.40457066  0.85975217  0.44107058    -0.65000
Ni506      Ni  0.42253574  0.86474928  0.31444646     1.27400
Ni507      Ni  0.40633942  0.79215361  0.35734919     1.26100
H508        H  0.43962268  0.81983884  0.40735524     0.40200
O509        O  0.15716681  0.54383258  0.46465835    -0.79800
O510        O  0.21697416  0.59539314  0.32132383    -0.64400
O511        O  0.16694197  0.58354864  0.40386102    -1.11000
C512        C  0.08256006  0.97040350  0.36848594     1.07100
O513        O  0.16514230  0.58345184  0.29558525    -0.77700
O514        O  0.09829012  0.55454112  0.32198739    -0.65200
Ni515      Ni  0.19042419  0.59239822  0.44668139     1.34900
C516        C  0.08741703  0.56058888  0.34920358     0.85900
O517        O  0.23235922  0.63874391  0.37582610    -0.78200
O518        O  0.22558564  0.64131024  0.43177816    -0.88500
C519        C  0.19927932  0.59433381  0.29444369     0.85400
O520        O  0.22418701  0.57600166  0.43804304    -0.66700
O521        O  0.09809705  0.98268656  0.34027165    -0.86000
C522        C  0.23497470  0.56784222  0.41187697     0.86300
C523        C  0.24132598  0.65558883  0.40387235     1.07800
H524        H  0.16369318  0.52534206  0.35489729     0.39600
O525        O  0.15437503  0.54228198  0.35404626    -1.08600
O526        O  0.09813288  0.55567546  0.37810842    -0.65300
Ni527      Ni  0.12804635  0.53531920  0.39419959     1.26300
O528        O  0.22360926  0.56994433  0.38217273    -0.65500
O529        O  0.09206613  0.98916192  0.39535694    -0.77800
C530        C  0.12232235  0.52453286  0.46154296     0.85700
O531        O  0.10552983  0.52896988  0.43658788    -0.65000
Ni532      Ni  0.12946146  0.53534155  0.31196514     1.27400
Ni533      Ni  0.19394423  0.59038666  0.36398741     1.26100
H534        H  0.15733814  0.60022393  0.40202146     0.40200
O535        O  0.11417513  0.92548262  0.53807857    -0.79800
O536        O  0.09709577  0.87954775  0.68730351    -0.64400
O537        O  0.07330094  0.88969034  0.59563097    -1.11000
C538        C  0.08243546  0.49960193  0.61548828     1.07100
O539        O  0.05219323  0.88973954  0.69991450    -0.77700
O540        O  0.01835274  0.91286769  0.65809675    -0.65200
Ni541      Ni  0.09292569  0.87731379  0.55916545     1.34900
C542        C  0.00854915  0.91115286  0.62753425     0.85900
O543        O  0.07990839  0.83539364  0.63387171    -0.78200
O544        O  0.07443723  0.82846608  0.57760700    -0.88500
C545        C  0.07531714  0.87994304  0.70860201     0.85400
O546        O  0.13965555  0.89097131  0.57860914    -0.66700
O547        O  0.07432390  0.98351416  0.66172542    -0.86000
C548        C  0.15507113  0.90211345  0.60715132     0.86300
C549        C  0.07537157  0.81678003  0.60749525     1.07800
H550        H  0.11805837  0.94837299  0.65113983     0.39600
O551        O  0.09248831  0.93134592  0.64605109    -1.08600
O552        O  0.03096957  0.92120503  0.60343599    -0.65300
Ni553      Ni  0.08319946  0.93914772  0.60049321     1.26300
O554        O  0.13839029  0.90459256  0.63242305    -0.65500
O555        O  0.09213353  0.98788275  0.60802110    -0.77800
C556        C  0.10208875  0.94781620  0.53426711     0.85700
O557        O  0.07815474  0.94687242  0.55365456    -0.65000
Ni558      Ni  0.06475400  0.93656308  0.67999042     1.27400
Ni559      Ni  0.08634669  0.88349407  0.64066027     1.26100
H560        H  0.04699880  0.87384566  0.59354970     0.40200
O561        O  0.05526836  0.66320675  0.53249155    -0.79800
O562        O  0.11389174  0.70836126  0.67644775    -0.64400
O563        O  0.09317379  0.66061588  0.59091153    -1.11000
C564        C  0.48573418  0.56910064  0.65810943     1.07100
O565        O  0.09204973  0.65498799  0.70422520    -0.77700
O566        O  0.07284782  0.59611099  0.66560643    -0.65200
Ni567      Ni  0.10511434  0.68699856  0.54964307     1.34900
C568        C  0.07088257  0.58179132  0.63732809     0.85900
O569        O  0.15381284  0.72302880  0.61930686    -0.78200
O570        O  0.15562341  0.71316750  0.56397583    -0.88500
C571        C  0.11054265  0.68986500  0.70345065     0.85400
O572        O  0.09866328  0.72676752  0.56255612    -0.66700
O573        O  0.50792910  0.57676265  0.68326871    -0.86000
C574        C  0.08854003  0.73482337  0.58925355     0.86300
C575        C  0.17077069  0.72970423  0.59132925     1.07800
H576        H  0.04009877  0.66055856  0.64516995     0.39600
O577        O  0.05495665  0.64907463  0.64281097    -1.08600
O578        O  0.05766546  0.58898662  0.61070081    -0.65300
Ni579      Ni  0.04311058  0.62566252  0.59982691     1.26300
O580        O  0.08625627  0.71880486  0.61753743    -0.65500
O581        O  0.49339896  0.58840541  0.63112413    -0.77800
C582        C  0.03104839  0.62938839  0.53252600     0.85700
O583        O  0.03172807  0.60743904  0.55477456    -0.65000
Ni584      Ni  0.04751922  0.61948220  0.68191298     1.27400
Ni585      Ni  0.10437676  0.68624677  0.63233983     1.26100
H586        H  0.10700829  0.64783560  0.59133729     0.40200
O587        O  0.42413981  0.59294915  0.48208740    -0.79800
O588        O  0.39291235  0.59343452  0.32685062    -0.64400
O589        O  0.39527757  0.56157501  0.41804146    -1.11000
C590        C  0.00394266  0.56892668  0.36926331     1.07100
O591        O  0.40579695  0.55094185  0.31153844    -0.77700
O592        O  0.42424775  0.51286650  0.35433368    -0.65200
Ni593      Ni  0.37904562  0.57678102  0.45533230     1.34900
C594        C  0.41944536  0.50066166  0.38435356     0.85900
O595        O  0.34405996  0.56999526  0.37666782    -0.78200
O596        O  0.33254488  0.56251844  0.43216797    -0.88500
C597        C  0.39407878  0.57295745  0.30434183     0.85400
O598        O  0.39756862  0.62610451  0.44107577    -0.66700
O599        O  0.99004465  0.56584811  0.33962879    -0.86000
C600        C  0.41011695  0.64417117  0.41400857     0.86300
C601        C  0.32294645  0.56346613  0.40139168     1.07800
H602        H  0.45897848  0.61234641  0.36860966     0.39600
O603        O  0.44177559  0.58639841  0.37122361    -1.08600
O604        O  0.42798210  0.52115370  0.40962925    -0.65300
Ni605      Ni  0.44520069  0.57220402  0.41653399     1.26300
O606        O  0.41201525  0.62984551  0.38654197    -0.65500
O607        O  0.98715506  0.56724175  0.39614461    -0.77800
C608        C  0.44557146  0.57960196  0.48520717     0.85700
O609        O  0.44747208  0.56015913  0.46255461    -0.65000
Ni610      Ni  0.45007764  0.56155408  0.33615852     1.27400
Ni611      Ni  0.39322295  0.57890477  0.37343710     1.26100
H612        H  0.37945028  0.53523370  0.41756699     0.40200
O613        O  0.35652300  0.95446659  0.80011431    -0.79800
O614        O  0.38330158  0.90709537  0.94073340    -0.64400
O615        O  0.35479351  0.90484622  0.84796090    -1.11000
C616        C  0.26213921  0.92608093  0.89032928     1.07100
O617        O  0.32491144  0.87436029  0.95622335    -0.77700
O618        O  0.26626371  0.85450087  0.91512896    -0.65200
Ni619      Ni  0.38796157  0.93561999  0.81482096     1.34900
C620        C  0.26161399  0.84202980  0.88552559     0.85900
O621        O  0.41070340  0.89858603  0.88200745    -0.78200
O622        O  0.42111641  0.91841645  0.82770334    -0.88500
C623        C  0.35888642  0.88492772  0.96103487     0.85400
O624        O  0.41490009  0.97884464  0.84069064    -0.66700
O625        O  0.27241126  0.92173136  0.91990086    -0.86000
C626        C  0.42120028  0.98507214  0.87190004     0.86300
C627        C  0.42823522  0.90521111  0.85427617     1.07800
H628        H  0.34501718  0.94623453  0.90445359     0.39600
O629        O  0.33337186  0.92012340  0.90071545    -1.08600
O630        O  0.28101093  0.86096856  0.86065797    -0.65300
Ni631      Ni  0.31499834  0.91325337  0.85531340     1.26300
O632        O  0.40688843  0.96006485  0.89427377    -0.65500
O633        O  0.27599383  0.92283215  0.86354148    -0.77800
C634        C  0.32432190  0.93333547  0.78902228     0.85700
O635        O  0.30109608  0.90855933  0.80828165    -0.65000
Ni636      Ni  0.30024025  0.89905864  0.93654284     1.27400
Ni637      Ni  0.37153788  0.90823087  0.89347494     1.26100
H638        H  0.34507868  0.87977137  0.84090421     0.40200
O639        O  0.44596813  0.82131462  0.19607895    -0.79800
O640        O  0.42754101  0.87833974  0.06040757    -0.64400
O641        O  0.40581843  0.82910072  0.14572981    -1.11000
C642        C  0.41785620  0.73887726  0.08693223     1.07100
O643        O  0.38373038  0.82663382  0.03804639    -0.77700
O644        O  0.34941110  0.76070352  0.07183350    -0.65200
Ni645      Ni  0.42700197  0.85352086  0.18644046     1.34900
C646        C  0.34033260  0.74858422  0.10173731     0.85900
O647        O  0.41210211  0.89508023  0.12089889    -0.78200
O648        O  0.40952505  0.88735506  0.17745247    -0.88500
C649        C  0.40438829  0.86151125  0.03679592     0.85400
O650        O  0.47384020  0.88845620  0.17060378    -0.66700
O651        O  0.40819733  0.75116429  0.06119202    -0.86000
C652        C  0.48865720  0.89783931  0.14212686     0.86300
C653        C  0.40841444  0.90407309  0.15051143     1.07800
H654        H  0.45020453  0.82515682  0.08524087     0.39600
O655        O  0.42461538  0.81593737  0.09013955    -1.08600
O656        O  0.36304500  0.75884164  0.12613279    -0.65300
Ni657      Ni  0.41472556  0.79050685  0.13250290     1.26300
O658        O  0.47113518  0.88499944  0.11438986    -0.65500
O659        O  0.42321459  0.75260749  0.11635324    -0.77800
C660        C  0.42330955  0.78775174  0.20142193     0.85700
O661        O  0.40555940  0.76799804  0.17664879    -0.65000
Ni662      Ni  0.39670674  0.78970449  0.05163609     1.27400
Ni663      Ni  0.41853883  0.85581212  0.10443484     1.26100
H664        H  0.37963692  0.81895955  0.14801313     0.40200
O665        O  0.15840023  0.57723131  0.20481714    -0.79800
O666        O  0.12127432  0.53261051  0.05076869    -0.64400
O667        O  0.15718596  0.54990369  0.14172511    -1.11000
C668        C  0.25031856  0.65916662  0.08995605     1.07100
O669        O  0.17467302  0.53975162  0.03636628    -0.77700
O670        O  0.23506314  0.56961761  0.07912595    -0.65200
Ni671      Ni  0.12227313  0.54063348  0.17603836     1.34900
C672        C  0.24502604  0.57334899  0.11002552     0.85900
O673        O  0.09714415  0.99318892  0.11256824    -0.78200
O674        O  0.08475264  0.99843721  0.16585368    -0.88500
C675        C  0.14054205  0.52744057  0.03017083     0.85400
O676        O  0.10941346  0.57484035  0.15703263    -0.66700
O677        O  0.24361661  0.63780838  0.06522342    -0.86000
C678        C  0.09674834  0.57373093  0.12736195     0.86300
C679        C  0.07652032  0.98133614  0.13788091     1.07800
H680        H  0.16718498  0.60311541  0.07958043     0.39600
O681        O  0.17683939  0.58742917  0.08704729    -1.08600
O682        O  0.23169211  0.58497620  0.13164532    -0.65300
Ni683      Ni  0.19529607  0.60029944  0.13187203     1.26300
O684        O  0.10425120  0.55951181  0.10276853    -0.65500
O685        O  0.23293977  0.64917626  0.11788443    -0.77800
C686        C  0.19178534  0.60246642  0.20457705     0.85700
O687        O  0.21104236  0.61323911  0.17812036    -0.60200
Ni688      Ni  0.20851953  0.58853487  0.05304704     1.27400
Ni689      Ni  0.13761542  0.54010946  0.09647503     1.26100
H690        H  0.16827732  0.53487691  0.14672092     0.40200
O691        O  0.07599783  0.90647691  0.80201255    -0.79800
O692        O  0.09686995  0.96400885  0.94760527    -0.64400
O693        O  0.11270770  0.95035777  0.85692277    -1.11000
C694        C  0.08792500  0.83175999  0.89437262     1.07100
O695        O  0.12280017  0.93236432  0.96894710    -0.77700
O696        O  0.14972789  0.89949334  0.93250775    -0.65200
Ni697      Ni  0.08275189  0.95147840  0.82123400     1.34900
C698        C  0.16997952  0.91724143  0.90799390     0.85900
O699        O  0.11220315  0.00686193  0.89070375    -0.78200
O700        O  0.08934031  0.99733660  0.83721757    -0.88500
C701        C  0.11536247  0.95823110  0.97042336     0.85400
O702        O  0.03618328  0.92414927  0.84301566    -0.66700
O703        O  0.08155937  0.83934777  0.92355160    -0.86000
C704        C  0.02734540  0.92700591  0.87267853     0.86300
C705        C  0.10348301  0.51821441  0.85021338     1.07800
H706        H  0.06309836  0.89155545  0.90444983     0.39600
O707        O  0.08951108  0.90642624  0.90648417    -1.08600
O708        O  0.15786231  0.92480940  0.88085551    -0.65300
Ni709      Ni  0.10763807  0.90340750  0.86418329     1.26300
O710        O  0.05090454  0.94172462  0.89618131    -0.65500
O711        O  0.10100036  0.85532819  0.87072572    -0.77800
C712        C  0.10204804  0.89985146  0.79682319     0.85700
O713        O  0.12432956  0.90318643  0.82037474    -0.65000
Ni714      Ni  0.10139572  0.88674693  0.94494281     1.27400
Ni715      Ni  0.10226184  0.95731833  0.90119420     1.26100
H716        H  0.13802687  0.96805420  0.85214912     0.40200
O717        O  0.11092914  0.67270507  0.80019578    -0.79800
O718        O  0.04180096  0.61496666  0.94022223    -0.64400
O719        O  0.06376626  0.65987794  0.85280315    -1.11000
C720        C  0.17553407  0.74974133  0.90479163     1.07100
O721        O  0.06556002  0.66734985  0.96793502    -0.77700
O722        O  0.09669364  0.73232547  0.93543403    -0.65200
Ni723      Ni  0.06468665  0.63288487  0.81537706     1.34900
C724        C  0.08697395  0.74148013  0.90808800     0.85900
O725        O  0.49946023  0.59581128  0.89441220    -0.78200
O726        O  0.50686412  0.59089330  0.83901253    -0.88500
C727        C  0.04301742  0.63298602  0.96582826     0.85400
O728        O  0.09073089  0.61087594  0.83666241    -0.66700
O729        O  0.16199687  0.73334666  0.93268945    -0.86000
C730        C  0.08715914  0.59671389  0.86588413     0.86300
C731        C  0.48787835  0.58054257  0.86576934     1.07800
H732        H  0.11804906  0.66355986  0.90638905     0.39600
O733        O  0.10214243  0.67407596  0.90650613    -1.08600
O734        O  0.08788426  0.72891645  0.87925998    -0.65300
Ni735      Ni  0.11029874  0.70074263  0.86450895     1.26300
O736        O  0.07106317  0.60279680  0.88921187    -0.65500
O737        O  0.15795328  0.74081168  0.87674042    -0.77800
C738        C  0.11506340  0.70447041  0.79489687     0.85700
O739        O  0.11473862  0.72264586  0.81998307    -0.65000
Ni740      Ni  0.11320740  0.69904818  0.94806005     1.27400
Ni741      Ni  0.05281852  0.63598347  0.89569147     1.26100
H742        H  0.04644555  0.66825363  0.84771447     0.40200
O743        O  0.43293512  0.58135334  0.21579635    -0.79800
O744        O  0.45616270  0.56123990  0.06137824    -0.64400
O745        O  0.44974267  0.59410791  0.14824383    -1.11000
C746        C  0.33079780  0.56398673  0.10320003     1.07100
O747        O  0.44271422  0.60175122  0.03942147    -0.77700
O748        O  0.41167034  0.63433017  0.07443098    -0.65200
Ni749      Ni  0.46534203  0.57597557  0.18619071     1.34900
C750        C  0.41654434  0.64797826  0.10358546     0.85900
O751        O  0.00545137  0.59594464  0.11723055    -0.78200
O752        O  0.99683429  0.57874701  0.17190862    -0.88500
C753        C  0.45942782  0.58343140  0.03792689     0.85400
O754        O  0.42926970  0.52668791  0.17673408    -0.66700
O755        O  0.34667354  0.56973136  0.07497698    -0.86000
C756        C  0.42678394  0.51016394  0.14961136     0.86300
C757        C  0.01631323  0.58907587  0.14542850     1.07800
H758        H  0.38896160  0.53859329  0.09785666     0.39600
O759        O  0.40432195  0.56496700  0.09911045    -1.08600
O760        O  0.41298577  0.62974989  0.13046124    -0.65300
Ni761      Ni  0.39802884  0.57981026  0.14216901     1.26300
O762        O  0.43809125  0.52695446  0.12129769    -0.65500
O763        O  0.34686839  0.56639484  0.13197106    -0.77800
C764        C  0.40817025  0.59047616  0.21450591     0.85700
O765        O  0.39294163  0.59310700  0.18712769    -0.65000
Ni766      Ni  0.39499091  0.58536205  0.05920749     1.27400
Ni767      Ni  0.45371092  0.57696281  0.10526148     1.26100
H768        H  0.46470389  0.62056935  0.14817487     0.40200
C769        C  0.48611945  0.59115871  0.01096057    -0.15300
C770        C  0.01616516  0.61381911  0.99328360    -0.30500
H771        H  0.49177548  0.56979491  0.00339706     0.13700
H772        H  0.00237791  0.58404478  0.99515389     0.14300
C773        C  0.07651669  0.77005434  0.91141688    -0.15300
C774        C  0.08272359  0.79499199  0.88713703    -0.30500
H775        H  0.07094251  0.77522972  0.93663913     0.13700
H776        H  0.09013190  0.79081967  0.86229929     0.14300
C777        C  0.11006926  0.55607564  0.84839222    -0.15300
C778        C  0.09923766  0.56954777  0.87301828    -0.30500
H779        H  0.11485417  0.56890353  0.82355506     0.13700
H780        H  0.09245798  0.55557418  0.89736458     0.14300
C781        C  0.12250610  0.50484165  0.00016247    -0.15300
C782        C  0.13151127  0.98334990  0.99893030    -0.30500
H783        H  0.09554316  0.50017597  0.99214288     0.13700
H784        H  0.15412966  0.98300460  0.01270568     0.14300
C785        C  0.05252840  0.59095634  0.14820777    -0.15300
C786        C  0.06922184  0.58597245  0.12189144    -0.30500
H787        H  0.06242470  0.59008193  0.17358922     0.13700
H788        H  0.05826122  0.58475146  0.09656620     0.14300
C789        C  0.27578486  0.56709119  0.12134332    -0.15300
C790        C  0.29195670  0.55543458  0.09999947    -0.30500
H791        H  0.28874477  0.57761711  0.14569533     0.13700
H792        H  0.27902439  0.54600461  0.07540839     0.14300
C793        C  0.04018866  0.94747345  0.13337944    -0.15300
C794        C  0.01704189  0.93251608  0.15902566    -0.30500
H795        H  0.03121537  0.93671840  0.10819335     0.13700
H796        H  0.02685465  0.94344698  0.18406779     0.14300
C797        C  0.28091508  0.69690867  0.08430085    -0.15300
C798        C  0.30247609  0.71881602  0.10891558    -0.30500
H799        H  0.28980862  0.70426337  0.05843263     0.13700
H800        H  0.29515412  0.71059635  0.13497820     0.14300
C801        C  0.40561445  0.93734766  0.15495290    -0.15300
C802        C  0.41328289  0.96246359  0.13024712    -0.30500
H803        H  0.40294081  0.94405754  0.18057495     0.13700
H804        H  0.40969508  0.45889210  0.17801076     0.14300
C805        C  0.42070168  0.70558532  0.08178872    -0.15300
C806        C  0.42457598  0.68625580  0.10741785    -0.30500
H807        H  0.41505344  0.69437007  0.05658064     0.13700
H808        H  0.42914558  0.69692335  0.13279422     0.14300
C809        C  0.21286563  0.78222203  0.90645728    -0.15300
C810        C  0.23040528  0.80432344  0.87996734    -0.30500
H811        H  0.22478504  0.79038504  0.93156249     0.13700
H812        H  0.21948022  0.79632842  0.85457171     0.14300
C813        C  0.43760718  0.52021753  0.88494221    -0.15300
C814        C  0.45118447  0.54793924  0.86218051    -0.30500
H815        H  0.45937868  0.02720415  0.90793647     0.13700
H816        H  0.43898945  0.54320785  0.83701825     0.14300
C817        C  0.20878362  0.92719260  0.91215470    -0.15300
C818        C  0.23042556  0.93214131  0.88618249    -0.30500
H819        H  0.21753554  0.92370175  0.93732163     0.13700
H820        H  0.22115707  0.93402633  0.86077618     0.14300
C821        C  0.46025053  0.89982604  0.85156125    -0.15300
C822        C  0.48635807  0.91098823  0.87570873    -0.30500
H823        H  0.46687278  0.89557993  0.82641883     0.13700
H824        H  0.98231027  0.92046693  0.90514843     0.14300
C825        C  0.36800396  0.86715906  0.98955984    -0.15300
C826        C  0.39939582  0.88249491  0.00819621    -0.30500
H827        H  0.34607143  0.84002324  0.99680454     0.13700
H828        H  0.42066060  0.91062883  0.00318246     0.14300
C829        C  0.39839676  0.59902720  0.24733243    -0.15300
C830        C  0.38014240  0.57140288  0.26942182    -0.30500
H831        H  0.41691025  0.62624883  0.25706844     0.13700
H832        H  0.36466904  0.54387638  0.25919747     0.14300
C833        C  0.11559169  0.71703033  0.75930535    -0.15300
C834        C  0.13083549  0.70709146  0.73511080    -0.30500
H835        H  0.09585708  0.72571845  0.75219027     0.13700
H836        H  0.14979461  0.69780585  0.74349670     0.14300
C837        C  0.00062739  0.61791463  0.50757668    -0.15300
C838        C  0.47117631  0.58896827  0.51437658    -0.30500
H839        H  0.99880449  0.63990040  0.49418428     0.13700
H840        H  0.48014191  0.56964826  0.52226155     0.14300
C841        C  0.07556973  0.86989929  0.74399627    -0.15300
C842        C  0.10582140  0.88859791  0.76310648    -0.30500
H843        H  0.04900409  0.85733293  0.75612615     0.13700
H844        H  0.13285820  0.90229089  0.75192304     0.14300
C845        C  0.08038974  0.76518817  0.58598986    -0.15300
C846        C  0.07383923  0.78086824  0.61195239    -0.30500
H847        H  0.08315409  0.77724616  0.56096117     0.13700
H848        H  0.07240208  0.76995001  0.63728549     0.14300
C849        C  0.08143476  0.53431281  0.61062531    -0.15300
C850        C  0.08239056  0.55370787  0.63745317    -0.30500
H851        H  0.07630359  0.54183713  0.58554311     0.13700
H852        H  0.08882135  0.54625164  0.66208038     0.14300
C853        C  0.20671320  0.62006635  0.23732302    -0.15300
C854        C  0.21660639  0.60291444  0.26098264    -0.30500
H855        H  0.19480223  0.63616579  0.24599552     0.13700
H856        H  0.22790099  0.58596313  0.25324351     0.14300
C857        C  0.10188807  0.49402083  0.48546546    -0.15300
C858        C  0.11942965  0.97709135  0.50845030    -0.30500
H859        H  0.07597409  0.48947205  0.49516724     0.13700
H860        H  0.14405512  0.98012618  0.49697767     0.14300
C861        C  0.05883503  0.57116587  0.34635290    -0.15300
C862        C  0.04043025  0.57197698  0.37310603    -0.30500
H863        H  0.04918859  0.57306603  0.32111361     0.13700
H864        H  0.04983124  0.56984270  0.39838074     0.14300
C865        C  0.26388851  0.55776218  0.41758970    -0.15300
C866        C  0.28635630  0.55947430  0.39339382    -0.30500
H867        H  0.27063176  0.55472375  0.44364644     0.13700
H868        H  0.28031599  0.56344968  0.36736375     0.14300
C869        C  0.43824983  0.79401499  0.26084617    -0.15300
C870        C  0.41403889  0.77455305  0.23649589    -0.30500
H871        H  0.46650981  0.81288460  0.25375349     0.13700
H872        H  0.38541909  0.75580121  0.24233281     0.14300
C873        C  0.40362042  0.96119427  0.37940209    -0.15300
C874        C  0.39287262  0.93810354  0.35338332    -0.30500
H875        H  0.41182905  0.45302296  0.41505076     0.13700
H876        H  0.38998688  0.94794107  0.32854935     0.14300
C877        C  0.42066648  0.68332946  0.41606945    -0.15300
C878        C  0.42200834  0.70410798  0.38945456    -0.30500
H879        H  0.42094811  0.69332079  0.44111331     0.13700
H880        H  0.42113962  0.69428652  0.36422562     0.14300
C881        C  0.02290546  0.92255557  0.39079544    -0.15300
C882        C  0.05002590  0.93347225  0.36837176    -0.30500
H883        H  0.02741194  0.93744332  0.41401922     0.13700
H884        H  0.04484575  0.91798114  0.34538966     0.14300
C885        C  0.29601481  0.70976005  0.37958884    -0.15300
C886        C  0.27326534  0.69297641  0.40550062    -0.30500
H887        H  0.28847101  0.69848794  0.35444515     0.13700
H888        H  0.28100990  0.70500637  0.43037690     0.14300
C889        C  0.29532353  0.91057716  0.73296282    -0.15300
C890        C  0.31678758  0.93839603  0.75352004    -0.30500
H891        H  0.27493401  0.88409697  0.74309023     0.13700
H892        H  0.33685746  0.96441998  0.74223405     0.14300
C893        C  0.20912361  0.76015707  0.58846525    -0.15300
C894        C  0.22545140  0.78648937  0.61164873    -0.30500
H895        H  0.22150876  0.76459208  0.56389428     0.13700
H896        H  0.21303960  0.78248160  0.63615003     0.14300
C897        C  0.43280063  0.51332697  0.63383682    -0.15300
C898        C  0.45023176  0.53469341  0.66063352    -0.30500
H899        H  0.44347891  0.02465017  0.59940862     0.13700
H900        H  0.44165116  0.52376958  0.68589128     0.14300
C901        C  0.21035329  0.90497678  0.58494416    -0.15300
C902        C  0.19355476  0.91000673  0.61110482    -0.30500
H903        H  0.19703492  0.89903433  0.56023795     0.13700
H904        H  0.20628796  0.91552585  0.63603998     0.14300
C905        C  0.44855178  0.89032096  0.63989487    -0.15300
C906        C  0.47246520  0.90162077  0.61445571    -0.30500
H907        H  0.45683574  0.88525184  0.66469746     0.13700
H908        H  0.96231409  0.90470955  0.59490913     0.14300
C909        C  0.37881597  0.87950305  0.50166073    -0.15300
C910        C  0.36465275  0.84590539  0.48822519    -0.30500
H911        H  0.40546176  0.90152626  0.49372691     0.13700
H912        H  0.33927785  0.82370124  0.49839014     0.14300
O913        O  0.82201159  0.36130551  0.53054041    -0.79800
O914        O  0.78959451  0.40366492  0.67305716    -0.64400
O915        O  0.81931747  0.40694484  0.58119516    -1.11000
C916        C  0.91475852  0.39306515  0.63522234     1.07100
O917        O  0.84748287  0.44366636  0.68377835    -0.77700
O918        O  0.90732670  0.46295293  0.64979124    -0.65200
Ni919      Ni  0.78740855  0.37594475  0.54701165     1.34900
C920        C  0.90865140  0.47472241  0.61989854     0.85900
O921        O  0.76350609  0.41333776  0.61156740    -0.78200
O922        O  0.75150660  0.38973884  0.55909915    -0.88500
C923        C  0.81446912  0.42646893  0.69301606     0.85400
O924        O  0.76263569  0.33157749  0.57356242    -0.66700
O925        O  0.90267868  0.39676338  0.66310860    -0.86000
C926        C  0.75335423  0.32621665  0.60434960     0.86300
C927        C  0.74498030  0.40461379  0.58381147     1.07800
H928        H  0.83045414  0.36785417  0.64232072     0.39600
O929        O  0.84107077  0.39371375  0.63700576    -1.08600
O930        O  0.88993617  0.45402529  0.59579060    -0.65300
Ni931      Ni  0.86042961  0.40128433  0.59299766     1.26300
O932        O  0.76664684  0.35171080  0.62600226    -0.65500
O933        O  0.90190994  0.39582353  0.60646149    -0.77800
C934        C  0.85685759  0.38133435  0.52694281     0.85700
O935        O  0.87609942  0.40650146  0.54764988    -0.65000
Ni936      Ni  0.87388259  0.41919565  0.67288120     1.27400
Ni937      Ni  0.80209526  0.40369465  0.62602050     1.26100
H938        H  0.82795064  0.43178707  0.57317495     0.40200
O939        O  0.87245341  0.29586166  0.46046430    -0.79800
O940        O  0.91035004  0.27655608  0.31264138    -0.64400
O941        O  0.91684491  0.30279183  0.40554572    -1.11000
C942        C  0.89540677  0.39568683  0.35608340     1.07100
O943        O  0.95118884  0.33431935  0.30448298    -0.77700
O944        O  0.96852907  0.39230242  0.34069703    -0.65200
Ni945      Ni  0.89042477  0.26691398  0.43922693     1.34900
C946        C  0.97947880  0.39515262  0.37103625     0.85900
O947        O  0.92461636  0.25012396  0.36884173    -0.78200
O948        O  0.90505428  0.23341309  0.42173740    -0.88500
C949        C  0.93384244  0.30178317  0.29398366     0.85400
O950        O  0.84530435  0.24308092  0.41492178    -0.66700
O951        O  0.90192585  0.38633233  0.32793067    -0.86000
C952        C  0.83724885  0.23641215  0.38396611     0.86300
C953        C  0.91751687  0.22896363  0.39426233     1.07800
H954        H  0.87469196  0.31390980  0.34571660     0.39600
O955        O  0.90053926  0.32523066  0.35158283    -1.08600
O956        O  0.95847987  0.37622718  0.39500753    -0.65300
Ni957      Ni  0.90591206  0.34171410  0.39645284     1.26300
O958        O  0.86070057  0.25097377  0.36069843    -0.65500
O959        O  0.89624632  0.38098920  0.38450229    -0.77800
C960        C  0.88326966  0.32995058  0.46306065     0.85700
O961        O  0.90660432  0.35377601  0.44298141    -0.65000
Ni962      Ni  0.92551572  0.35920004  0.31669951     1.27400
Ni963      Ni  0.91245356  0.28751217  0.35962000     1.26100
H964        H  0.94247705  0.31354363  0.41205730     0.40200
O965        O  0.66098443  0.04830241  0.46337696    -0.79800
O966        O  0.71723465  0.09322977  0.31900326    -0.64400
O967        O  0.66783479  0.08459411  0.40105290    -1.11000
C968        C  0.57875462  0.47774383  0.36556311     1.07100
O969        O  0.66643806  0.08353773  0.29237281    -0.77700
O970        O  0.60259617  0.06263131  0.32276039    -0.65200
Ni971      Ni  0.69222054  0.09625180  0.44344655     1.34900
C972        C  0.59000861  0.06498109  0.35059780     0.85900
O973        O  0.73381544  0.13830428  0.37200884    -0.78200
O974        O  0.72521749  0.14483950  0.42666092    -0.88500
C975        C  0.70023032  0.09271858  0.29186933     0.85400
O976        O  0.72746098  0.08148098  0.43534144    -0.66700
O977        O  0.58856492  0.49568434  0.33773119    -0.86000
C978        C  0.73620363  0.06988470  0.41003846     0.86300
C979        C  0.74176965  0.15717329  0.39879844     1.07800
H980        H  0.66279592  0.02499352  0.35142394     0.39600
O981        O  0.65408931  0.04240869  0.35174453    -1.08600
O982        O  0.59780046  0.05480249  0.37845149    -0.65300
Ni983      Ni  0.62921405  0.03572462  0.39292279     1.26300
O984        O  0.72283641  0.06863052  0.38047582    -0.65500
O985        O  0.59588870  0.48968064  0.39367598    -0.77800
C986        C  0.62614507  0.02820337  0.46146763     0.85700
O987        O  0.60812129  0.02980507  0.43607945    -0.65000
Ni988      Ni  0.62802325  0.03768308  0.31059162     1.27400
Ni989      Ni  0.69446345  0.09003016  0.36124666     1.26100
H990        H  0.65792822  0.10095317  0.39830311     0.40200
O991        O  0.61066170  0.44063151  0.53685013    -0.79800
O992        O  0.59781102  0.37121811  0.67896443    -0.64400
O993        O  0.57390498  0.39329619  0.59089786    -1.11000
C994        C  0.58517572  0.00533624  0.62317436     1.07100
O995        O  0.55345401  0.38026911  0.69355251    -0.77700
O996        O  0.52246256  0.41663170  0.66634682    -0.65200
Ni997      Ni  0.59741165  0.39131876  0.55174416     1.34900
C998        C  0.50875033  0.41029772  0.63687057     0.85900
O999        O  0.57961834  0.33489646  0.61974727    -0.78200
O1000       O  0.58532680  0.34181515  0.56324356    -0.88500
C1001       C  0.57742907  0.37149183  0.70176016     0.85400
O1002       O  0.64577444  0.40865522  0.57017850    -0.66700
O1003       O  0.58580000  0.48143269  0.67451990    -0.86000
C1004       C  0.65823639  0.40979889  0.59992270     0.86300
C1005       C  0.58032977  0.32325037  0.59051364     1.07800
H1006       H  0.61980619  0.44538313  0.64856750     0.39600
O1007       O  0.59383196  0.42851023  0.64528906    -1.08600
O1008       O  0.52769490  0.41568392  0.61087813    -0.65300
Ni1009     Ni  0.57963175  0.43964337  0.60304858     1.26300
O1010       O  0.63880250  0.40262381  0.62597395    -0.65500
O1011       O  0.58528748  0.48583258  0.61766866    -0.77800
C1012       C  0.59044408  0.45548762  0.53577409     0.85700
O1013       O  0.56804669  0.44983460  0.55888118    -0.65000
Ni1014     Ni  0.57015119  0.43081094  0.68408347     1.27400
Ni1015     Ni  0.58694471  0.38140052  0.63376818     1.26100
H1016       H  0.54806043  0.37617245  0.58722330     0.40200
O1017       O  0.54452120  0.16542284  0.54957105    -0.79800
O1018       O  0.61906518  0.20625167  0.68894462    -0.64400
O1019       O  0.58923935  0.16225122  0.60204330    -1.11000
C1020       C  0.97826438  0.07588866  0.64251632     1.07100
O1021       O  0.59008826  0.15387962  0.71873113    -0.77700
O1022       O  0.57501115  0.09866673  0.67656421    -0.65200
Ni1023     Ni  0.59603569  0.19051422  0.56231674     1.34900
C1024       C  0.57200324  0.08476957  0.64785415     0.85900
O1025       O  0.65328034  0.22234882  0.62881620    -0.78200
O1026       O  0.64777271  0.21771524  0.57215274    -0.88500
C1027       C  0.61348114  0.18783563  0.71626908     0.85400
O1028       O  0.58993670  0.22865297  0.58052858    -0.66700
O1029       O  0.99204665  0.09179757  0.67036400    -0.86000
C1030       C  0.58533663  0.23653836  0.60995317     0.86300
C1031       C  0.66651198  0.23166411  0.59905633     1.07800
H1032       H  0.54081071  0.16144498  0.66066922     0.39600
O1033       O  0.55480443  0.14929973  0.65687367    -1.08600
O1034       O  0.55644916  0.09095417  0.62225734    -0.65300
Ni1035     Ni  0.54025991  0.12680322  0.61334502     1.26300
O1036       O  0.58751342  0.21998361  0.63627793    -0.65500
O1037       O  0.99498292  0.08592666  0.61474547    -0.77800
C1038       C  0.52310809  0.13095892  0.54741249     0.85700
O1039       O  0.52648782  0.10912970  0.56806961    -0.65000
Ni1040     Ni  0.54722897  0.11806589  0.69496054     1.27400
Ni1041     Ni  0.60453827  0.18568731  0.64447230     1.26100
H1042       H  0.60293923  0.14967473  0.59889875     0.40200
O1043       O  0.91810971  0.07685194  0.48140793    -0.79800
O1044       O  0.88516383  0.08645279  0.32464461    -0.64400
O1045       O  0.89272565  0.05295578  0.41416083    -1.11000
C1046       C  0.50968776  0.07710162  0.37479288     1.07100
O1047       O  0.90382767  0.05027221  0.30342340    -0.77700
O1048       O  0.91866067  0.00920622  0.34657376    -0.65200
Ni1049     Ni  0.87574066  0.06644970  0.45275489     1.34900
C1050       C  0.91916536  0.99721661  0.37607036     0.85900
O1051       O  0.83793499  0.05807372  0.37422925    -0.78200
O1052       O  0.83079773  0.05807756  0.42978340    -0.88500
C1053       C  0.88775922  0.06903689  0.30012672     0.85400
O1054       O  0.89878795  0.11700443  0.44139327    -0.66700
O1055       O  0.49318958  0.06983310  0.34606207    -0.86000
C1056       C  0.90686132  0.13482833  0.41378075     0.86300
C1057       C  0.81921153  0.05614995  0.39941260     1.07800
H1058       H  0.95312794  0.10804761  0.36266795     0.39600
O1059       O  0.93746975  0.08182660  0.36552819    -1.08600
O1060       O  0.93092704  0.01802378  0.40148310    -0.65300
Ni1061     Ni  0.94418456  0.06834259  0.41014262     1.26300
O1062       O  0.90405521  0.12034743  0.38501428    -0.65500
O1063       O  0.49601327  0.08111773  0.40162219    -0.77800
C1064       C  0.94462267  0.07025534  0.48094615     0.85700
O1065       O  0.95126020  0.05735047  0.45540613    -0.65000
Ni1066     Ni  0.94643076  0.05823326  0.32948523     1.27400
Ni1067     Ni  0.88795608  0.07054592  0.37004470     1.26100
H1068       H  0.87864333  0.02645821  0.41354743     0.40200
O1069       O  0.83973585  0.44361732  0.79236549    -0.79800
O1070       O  0.88309285  0.41405876  0.93769250    -0.64400
O1071       O  0.84666858  0.40430944  0.84686817    -1.11000
C1072       C  0.75961795  0.42878864  0.89745730     1.07100
O1073       O  0.82619171  0.37806969  0.95481963    -0.77700
O1074       O  0.76376893  0.35823056  0.92103364    -0.65200
Ni1075     Ni  0.87679637  0.43326241  0.81107816     1.34900
C1076       C  0.75909439  0.34314475  0.89267591     0.85900
O1077       O  0.90472222  0.40069643  0.87933017    -0.78200
O1078       O  0.91526570  0.42370563  0.82625528    -0.88500
C1079       C  0.86048370  0.39025593  0.95809232     0.85400
O1080       O  0.89958553  0.47916897  0.83400405    -0.66700
O1081       O  0.77440722  0.42763514  0.92558815    -0.86000
C1082       C  0.91198674  0.48696493  0.86405281     0.86300
C1083       C  0.92316222  0.41031845  0.85229750     1.07800
H1084       H  0.84161798  0.44983674  0.90254042     0.39600
O1085       O  0.83011854  0.42350306  0.90040184    -1.08600
O1086       O  0.77684763  0.36030859  0.86670427    -0.65300
Ni1087     Ni  0.80682214  0.41192637  0.85705840     1.26300
O1088       O  0.90263314  0.46300167  0.88748733    -0.65500
O1089       O  0.76754118  0.42058313  0.86923974    -0.77800
C1090       C  0.80645437  0.41886754  0.78707832     0.85700
O1091       O  0.78688377  0.40045748  0.81182054    -0.65000
Ni1092     Ni  0.80127312  0.40362164  0.93908442     1.27400
Ni1093     Ni  0.86722229  0.41136137  0.89139495     1.26100
H1094       H  0.83719943  0.37888705  0.84110826     0.40200
O1095       O  0.93252407  0.33124624  0.20268032    -0.79800
O1096       O  0.92461124  0.38496680  0.06002198    -0.64400
O1097       O  0.89635364  0.33562710  0.14498228    -1.11000
C1098       C  0.91439437  0.24726035  0.09132320     1.07100
O1099       O  0.88161919  0.33347785  0.03676794    -0.77700
O1100       O  0.84405881  0.27046647  0.07377792    -0.65200
Ni1101     Ni  0.91250063  0.36122352  0.18605747     1.34900
C1102       C  0.83531303  0.25616337  0.10302968     0.85900
O1103       O  0.90506525  0.40234720  0.11676491    -0.78200
O1104       O  0.89452890  0.39392989  0.17225016    -0.88500
C1105       C  0.90280559  0.36826660  0.03565623     0.85400
O1106       O  0.96044245  0.39681837  0.17277007    -0.66700
O1107       O  0.90098349  0.25639999  0.06609774    -0.86000
C1108       C  0.97793822  0.40486622  0.14555485     0.86300
C1109       C  0.89836679  0.41178917  0.14473996     1.07800
H1110       H  0.94500324  0.33254886  0.08674722     0.39600
O1111       O  0.91932235  0.32308260  0.09143021    -1.08600
O1112       O  0.85852150  0.26419071  0.12681265    -0.65300
Ni1113     Ni  0.90928763  0.29903437  0.13422069     1.26300
O1114       O  0.96319520  0.39081694  0.11720697    -0.65500
O1115       O  0.92189385  0.26320091  0.11987685    -0.77800
C1116       C  0.91538564  0.29638523  0.20431293     0.85700
O1117       O  0.90008150  0.27745525  0.17844014    -0.65000
Ni1118     Ni  0.89166654  0.29567064  0.05354768     1.27400
Ni1119     Ni  0.91190449  0.36242800  0.10362478     1.26100
H1120       H  0.86986823  0.32417199  0.14498630     0.40200
O1121       O  0.66335211  0.07432669  0.20301921    -0.79800
O1122       O  0.62150677  0.03930952  0.04815271    -0.64400
O1123       O  0.66135563  0.05328905  0.13730551    -1.11000
C1124       C  0.74500862  0.16930779  0.08858328     1.07100
O1125       O  0.67570151  0.05198720  0.03005030    -0.77700
O1126       O  0.73789657  0.08495206  0.07026181    -0.65200
Ni1127     Ni  0.62756017  0.03810152  0.17361847     1.34900
C1128       C  0.74850964  0.08669169  0.10083407     0.85900
O1129       O  0.60272526  0.48754032  0.10442224    -0.78200
O1130       O  0.58779977  0.48732647  0.15720306    -0.88500
C1131       C  0.64083514  0.03605085  0.02635727     0.85400
O1132       O  0.60984411  0.07022435  0.15947899    -0.66700
O1133       O  0.73866388  0.15034699  0.06210164    -0.86000
C1134       C  0.59611656  0.07050901  0.13057747     0.86300
C1135       C  0.58068742  0.47301486  0.12824883     1.07800
H1136       H  0.66335225  0.10824042  0.07965702     0.39600
O1137       O  0.67544771  0.09416361  0.08479357    -1.08600
O1138       O  0.73433556  0.09469457  0.12458745    -0.65300
Ni1139     Ni  0.69526378  0.10547615  0.12918175     1.26300
O1140       O  0.60398152  0.05936856  0.10404365    -0.65500
O1141       O  0.72911495  0.15618990  0.11685807    -0.77800
C1142       C  0.69523666  0.10240343  0.20221888     0.85700
O1143       O  0.71245140  0.11678708  0.17516191    -0.60200
Ni1144     Ni  0.70664763  0.10085360  0.04820854     1.27400
Ni1145     Ni  0.63993086  0.04493994  0.09288813     1.26100
H1146       H  0.67482727  0.04019921  0.13976653     0.40200
O1147       O  0.55022747  0.39891442  0.79987195    -0.79800
O1148       O  0.59229000  0.46180183  0.94218692    -0.64400
O1149       O  0.59892314  0.44200124  0.85026781    -1.11000
C1150       C  0.58800279  0.33095049  0.89402561     1.07100
O1151       O  0.63281511  0.44441436  0.95703335    -0.77700
O1152       O  0.65845947  0.41485252  0.91433217    -0.65200
Ni1153     Ni  0.57116547  0.44852256  0.81538415     1.34900
C1154       C  0.66665270  0.41928550  0.88343771     0.85900
O1155       O  0.59984834  0.49982190  0.88496324    -0.78200
O1156       O  0.58973027  0.49837054  0.82875288    -0.88500
C1157       C  0.61768426  0.46370382  0.96171573     0.85400
O1158       O  0.52728604  0.43299033  0.83924326    -0.66700
O1159       O  0.59790198  0.34722690  0.92238914    -0.86000
C1160       C  0.51811049  0.42611771  0.86981030     0.86300
C1161       C  0.60103864  0.01391980  0.86087798     1.07800
H1162       H  0.56077806  0.38758920  0.90935785     0.39600
O1163       O  0.58618816  0.40370160  0.90363351    -1.08600
O1164       O  0.64342138  0.41293686  0.85974588    -0.65300
Ni1165     Ni  0.59111602  0.39372899  0.85801384     1.26300
O1166       O  0.54086793  0.43144874  0.89378306    -0.65500
O1167       O  0.58340531  0.34557827  0.86730232    -0.77800
C1168       C  0.56850284  0.38370338  0.79192843     0.85700
O1169       O  0.59356322  0.38509011  0.81136641    -0.65000
Ni1170     Ni  0.61397897  0.39623563  0.93811411     1.27400
Ni1171     Ni  0.59359393  0.45208121  0.89551794     1.26100
H1172       H  0.62439085  0.45802441  0.84466082     0.40200
O1173       O  0.61445983  0.17109538  0.81209751    -0.79800
O1174       O  0.54329685  0.12023658  0.95301647    -0.64400
O1175       O  0.56731448  0.16012583  0.86385908    -1.11000
C1176       C  0.68026423  0.24850486  0.91549731     1.07100
O1177       O  0.56919590  0.17601258  0.97498977    -0.77700
O1178       O  0.60864800  0.23961783  0.94316475    -0.65200
Ni1179     Ni  0.56722978  0.13253598  0.82699678     1.34900
C1180       C  0.59592078  0.24610815  0.91621765     0.85900
O1181       O  0.99607005  0.09738145  0.88308420    -0.78200
O1182       O  0.01102220  0.08673159  0.83196890    -0.88500
C1183       C  0.54429080  0.14242032  0.97488263     0.85400
O1184       O  0.59092673  0.10888980  0.84931750    -0.66700
O1185       O  0.66820644  0.23069704  0.94309824    -0.86000
C1186       C  0.58677172  0.09468427  0.87860611     0.86300
C1187       C  0.98853320  0.07866639  0.85606847     1.07800
H1188       H  0.62048906  0.16349772  0.91776232     0.39600
O1189       O  0.60536405  0.17490242  0.91752169    -1.08600
O1190       O  0.59172350  0.22904327  0.88879732    -0.65300
Ni1191     Ni  0.61407845  0.20054338  0.87547824     1.26300
O1192       O  0.57216420  0.10248410  0.90229598    -0.65500
O1193       O  0.66139439  0.24048692  0.88811794    -0.77800
C1194       C  0.62005139  0.20341338  0.80652067     0.85700
O1195       O  0.61958051  0.22198822  0.83107381    -0.65000
Ni1196     Ni  0.61825943  0.20177019  0.95780781     1.27400
Ni1197     Ni  0.55555293  0.13763890  0.90725982     1.26100
H1198       H  0.55053695  0.16906167  0.85829754     0.40200
O1199       O  0.89637204  0.05847801  0.20508595    -0.79800
O1200       O  0.96783590  0.07773457  0.06653088    -0.64400
O1201       O  0.94368345  0.09554190  0.15334769    -1.11000
C1202       C  0.83767861  0.08289491  0.09261779     1.07100
O1203       O  0.95640428  0.11977051  0.04414067    -0.77700
O1204       O  0.91916819  0.14941253  0.07519328    -0.65200
Ni1205     Ni  0.94395738  0.06765486  0.19174285     1.34900
C1206       C  0.92403719  0.16189899  0.10489048     0.85900
O1207       O  0.49978260  0.08076715  0.12394606    -0.78200
O1208       O  0.49531123  0.07267083  0.18021290    -0.88500
C1209       C  0.97163741  0.10001886  0.04276400     0.85400
O1210       O  0.92041345  0.02057279  0.17159579    -0.66700
O1211       O  0.85555866  0.08577886  0.06619319    -0.86000
C1212       C  0.92088492  0.01048099  0.14193178     0.86300
C1213       C  0.51297523  0.07915430  0.15287462     1.07800
H1214       H  0.89238891  0.05263172  0.09407783     0.39600
O1215       O  0.90911727  0.07853329  0.09732325    -1.08600
O1216       O  0.92127672  0.14284644  0.13101290    -0.65300
Ni1217     Ni  0.89734443  0.09092669  0.13934293     1.26300
O1218       O  0.93446500  0.03282915  0.11729850    -0.65500
O1219       O  0.85084106  0.08575253  0.12273862    -0.77800
C1220       C  0.88929719  0.08420365  0.20904806     0.85700
O1221       O  0.88859720  0.10278869  0.18359847    -0.65000
Ni1222     Ni  0.90607028  0.10236493  0.05712177     1.27400
Ni1223     Ni  0.95611196  0.08524839  0.11079889     1.26100
H1224       H  0.96086381  0.12097024  0.15828379     0.40200
C1225       C  0.99592008  0.10446952  0.01427521    -0.15300
C1226       C  0.51476118  0.13176308  0.99950412    -0.30500
H1227       H  0.00880929  0.08753513  0.01393048     0.13700
H1228       H  0.51033784  0.15379884  0.00760047     0.14300
C1229       C  0.58794203  0.27646786  0.91809465    -0.15300
C1230       C  0.58390325  0.29398457  0.89112391    -0.30500
H1231       H  0.59040350  0.28791658  0.94289642     0.13700
H1232       H  0.58180456  0.28310143  0.86614072     0.14300
C1233       C  0.60379478  0.05030704  0.85889297    -0.15300
C1234       C  0.59692016  0.06581389  0.88482829    -0.30500
H1235       H  0.60508210  0.06143766  0.83365996     0.13700
H1236       H  0.59320404  0.05351028  0.90982362     0.14300
C1237       C  0.62225220  0.01036136  0.99875031    -0.15300
C1238       C  0.63330239  0.49058353  0.98918539    -0.30500
H1239       H  0.60112395  0.01229399  0.98388598     0.13700
H1240       H  0.66003314  0.49619284  0.99905687     0.14300
C1241       C  0.54978920  0.08253030  0.15512566    -0.15300
C1242       C  0.56713364  0.08077135  0.12778406    -0.30500
H1243       H  0.56019925  0.08097247  0.18010097     0.13700
H1244       H  0.55598707  0.08094453  0.10281006     0.14300
C1245       C  0.78029276  0.08152684  0.10979278    -0.15300
C1246       C  0.80040459  0.07771278  0.08627286    -0.30500
H1247       H  0.78975940  0.08520360  0.13588297     0.13700
H1248       H  0.79108143  0.07483147  0.06015402     0.14300
C1249       C  0.54427696  0.44017205  0.12126530    -0.15300
C1250       C  0.52290814  0.41941643  0.14650378    -0.30500
H1251       H  0.53370870  0.43517732  0.09552531     0.13700
H1252       H  0.53459369  0.42444126  0.17189060     0.14300
C1253       C  0.77399018  0.20806244  0.08491941    -0.15300
C1254       C  0.79744640  0.22649234  0.10998825    -0.30500
H1255       H  0.78110467  0.21858160  0.05932561     0.13700
H1256       H  0.79160014  0.21501509  0.13537036     0.14300
C1257       C  0.89830192  0.44696084  0.14652829    -0.15300
C1258       C  0.91321169  0.47345749  0.12243399    -0.30500
H1259       H  0.89168450  0.45358986  0.17067313     0.13700
H1260       H  0.91201151  0.96377341  0.11130724     0.14300
C1261       C  0.91959183  0.21547236  0.08593179    -0.15300
C1262       C  0.93005034  0.19934268  0.10993016    -0.30500
H1263       H  0.91088821  0.20265937  0.06142470     0.13700
H1264       H  0.93741271  0.21097366  0.13495676     0.14300
C1265       C  0.71661278  0.28208649  0.91633517    -0.15300
C1266       C  0.73014329  0.30443511  0.88928343    -0.30500
H1267       H  0.73011748  0.29114651  0.94076538     0.13700
H1268       H  0.71756021  0.29527795  0.86455017     0.14300
C1269       C  0.93690537  0.01958334  0.87598418    -0.15300
C1270       C  0.95284195  0.04481883  0.85139187    -0.30500
H1271       H  0.94941604  0.53208391  0.89799252     0.13700
H1272       H  0.94379879  0.03709944  0.82549117     0.14300
C1273       C  0.70439630  0.42899759  0.87478835    -0.15300
C1274       C  0.72981484  0.43734085  0.89934334    -0.30500
H1275       H  0.70917160  0.42272662  0.84970658     0.13700
H1276       H  0.72464112  0.44384339  0.92420705     0.14300
C1277       C  0.95651707  0.40766317  0.85004628    -0.15300
C1278       C  0.98283314  0.42017758  0.87426275    -0.30500
H1279       H  0.96292801  0.40281714  0.82503971     0.13700
H1280       H  0.47243528  0.41694835  0.90268241     0.14300
C1281       C  0.87190141  0.37204921  0.98385292    -0.15300
C1282       C  0.89908794  0.38940639  0.00676000    -0.30500
H1283       H  0.85330954  0.34268278  0.98667460     0.13700
H1284       H  0.91646707  0.41908392  0.00564860     0.14300
C1285       C  0.88518636  0.09356790  0.24383745    -0.15300
C1286       C  0.86975473  0.06659221  0.26710926    -0.30500
H1287       H  0.90282336  0.12177137  0.25169319     0.13700
H1288       H  0.85321903  0.03870836  0.25793263     0.14300
C1289       C  0.62227905  0.21655047  0.77114778    -0.15300
C1290       C  0.63542037  0.20429218  0.74716626    -0.30500
H1291       H  0.60480104  0.22796827  0.76391274     0.13700
H1292       H  0.65229884  0.19249467  0.75545956     0.14300
C1293       C  0.49269158  0.11818465  0.52205873    -0.15300
C1294       C  0.96988014  0.08026587  0.51064918    -0.30500
H1295       H  0.48595300  0.13868109  0.51252360     0.13700
H1296       H  0.95971000  0.08202759  0.53498312     0.14300
C1297       C  0.58445157  0.36805840  0.73791541    -0.15300
C1298       C  0.55898358  0.36460566  0.75971665    -0.30500
H1299       H  0.61238818  0.37666555  0.74642721     0.13700
H1300       H  0.53141308  0.35638307  0.75018319     0.14300
C1301       C  0.57890757  0.26763908  0.61407012    -0.15300
C1302       C  0.57727113  0.28703856  0.58736322    -0.30500
H1303       H  0.57880101  0.27663727  0.63943980     0.13700
H1304       H  0.57776983  0.27806609  0.56206667     0.14300
C1305       C  0.58457524  0.04009609  0.61897506    -0.15300
C1306       C  0.58464066  0.05784709  0.64655694    -0.30500
H1307       H  0.58021675  0.04871948  0.59410274     0.13700
H1308       H  0.59086493  0.04937273  0.67080742     0.14300
C1309       C  0.71067794  0.11938309  0.23504721    -0.15300
C1310       C  0.71811329  0.10044765  0.25880889    -0.30500
H1311       H  0.70152443  0.13796823  0.24329769     0.13700
H1312       H  0.72706421  0.08152162  0.25113589     0.14300
C1313       C  0.60688543  0.00034836  0.48794938    -0.15300
C1314       C  0.59590441  0.48252569  0.50891586    -0.30500
H1315       H  0.57925917  0.99351508  0.49472463     0.13700
H1316       H  0.57310684  0.48604016  0.49999864     0.14300
C1317       C  0.56273868  0.07738331  0.34970659    -0.15300
C1318       C  0.54542975  0.07824675  0.37738962    -0.30500
H1319       H  0.55324664  0.08120695  0.32500844     0.13700
H1320       H  0.55521561  0.07525585  0.40222254     0.14300
C1321       C  0.76473100  0.05935006  0.41652846    -0.15300
C1322       C  0.78339032  0.05438665  0.39226482    -0.30500
H1323       H  0.77392607  0.06045802  0.44253505     0.13700
H1324       H  0.77504739  0.05425519  0.36611157     0.14300
C1325       C  0.94074675  0.29594036  0.25941769    -0.15300
C1326       C  0.91296321  0.27860360  0.23730708    -0.30500
H1327       H  0.96726073  0.31660856  0.24971446     0.13700
H1328       H  0.88588225  0.25806237  0.24582897     0.14300
C1329       C  0.90025404  0.45103344  0.38057171    -0.15300
C1330       C  0.89010735  0.42770895  0.35480791    -0.30500
H1331       H  0.91094398  0.94900910  0.40643204     0.13700
H1332       H  0.88618218  0.43676588  0.32993668     0.14300
C1333       C  0.91720903  0.17379876  0.41670304    -0.15300
C1334       C  0.92107683  0.19587662  0.39039373    -0.30500
H1335       H  0.91661178  0.18311236  0.44184094     0.13700
H1336       H  0.92222734  0.18729412  0.36510861     0.14300
C1337       C  0.51927013  0.42853559  0.38777380    -0.15300
C1338       C  0.54471268  0.44198888  0.36362170    -0.30500
H1339       H  0.52570078  0.44066037  0.41261198     0.13700
H1340       H  0.53738287  0.42975738  0.33881031     0.14300
C1341       C  0.79925585  0.20791379  0.37534962    -0.15300
C1342       C  0.77349538  0.19462081  0.39925020    -0.30500
H1343       H  0.79418547  0.19399289  0.35147298     0.13700
H1344       H  0.77897596  0.20916778  0.42284446     0.14300
C1345       C  0.80778584  0.43536228  0.72704026    -0.15300
C1346       C  0.79203522  0.41007808  0.75173211    -0.30500
H1347       H  0.82632494  0.46353400  0.73461842     0.13700
H1348       H  0.77387791  0.38146090  0.74541850     0.14300
C1349       C  0.70478095  0.26185737  0.59365373    -0.15300
C1350       C  0.72341250  0.28940660  0.61546276    -0.30500
H1351       H  0.71494949  0.26512549  0.56822419     0.13700
H1352       H  0.71285369  0.28696427  0.64060745     0.14300
C1353       C  0.93139934  0.01684307  0.61883026    -0.15300
C1354       C  0.94265644  0.04164617  0.64365725    -0.30500
H1355       H  0.94585687  0.52264898  0.58824657     0.13700
H1356       H  0.92932795  0.03346629  0.66790767     0.14300
C1357       C  0.71305737  0.41032148  0.57920637    -0.15300
C1358       C  0.69629828  0.41653065  0.60455440    -0.30500
H1359       H  0.70012741  0.40452205  0.55432631     0.13700
H1360       H  0.70787360  0.42035607  0.62991306     0.14300
C1361       C  0.94728145  0.38839405  0.63710004    -0.15300
C1362       C  0.96955163  0.39574329  0.61077270    -0.30500
H1363       H  0.95667626  0.38565226  0.66220898     0.13700
H1364       H  0.45946584  0.39831542  0.60665356     0.14300
C1365       C  0.87605870  0.37426204  0.49952218    -0.15300
C1366       C  0.86527850  0.33996487  0.48941452    -0.30500
H1367       H  0.90089741  0.39718735  0.48938421     0.13700
H1368       H  0.84178735  0.31729452  0.50162678     0.14300
O1369       O  0.82308048  0.86349297  0.53683347    -0.79800
O1370       O  0.78641622  0.90249512  0.67712268    -0.64400
O1371       O  0.81860838  0.90832728  0.58642008    -1.11000
C1372       C  0.91406511  0.89672723  0.64282807     1.07100
O1373       O  0.84316686  0.94522028  0.68692144    -0.77700
O1374       O  0.90475622  0.96639933  0.65601764    -0.65200
Ni1375     Ni  0.78785774  0.87739763  0.55176279     1.34900
C1376       C  0.90630732  0.97759514  0.62595222     0.85900
O1377       O  0.76107882  0.91216324  0.61574810    -0.78200
O1378       O  0.75131490  0.89025401  0.56273020    -0.88500
C1379       C  0.81074584  0.92577280  0.69694566     0.85400
O1380       O  0.76271808  0.83282131  0.57769840    -0.66700
O1381       O  0.90182900  0.90118824  0.67033580    -0.86000
C1382       C  0.75308422  0.82688711  0.60833657     0.86300
C1383       C  0.74350898  0.90381566  0.58754591     1.07800
H1384       H  0.83003895  0.86977863  0.64819118     0.39600
O1385       O  0.83993029  0.89549700  0.64261415    -1.08600
O1386       O  0.88859172  0.95633309  0.60186384    -0.65300
Ni1387     Ni  0.86002955  0.90356406  0.59910855     1.26300
O1388       O  0.76612203  0.85184254  0.63040557    -0.65500
O1389       O  0.90157329  0.89882579  0.61366115    -0.77800
C1390       C  0.85774752  0.88421372  0.53328806     0.85700
O1391       O  0.87661997  0.90924630  0.55417859    -0.65000
Ni1392     Ni  0.87157176  0.92233757  0.67861932     1.27400
Ni1393     Ni  0.80024378  0.90396638  0.63074594     1.26100
H1394       H  0.82687642  0.93317466  0.57861929     0.40200
O1395       O  0.86681562  0.80046133  0.46135726    -0.79800
O1396       O  0.91198356  0.77491462  0.32261928    -0.64400
O1397       O  0.91743871  0.80670819  0.41332327    -1.11000
C1398       C  0.90582245  0.90271130  0.35819801     1.07100
O1399       O  0.95582258  0.83120592  0.31287266    -0.77700
O1400       O  0.97787236  0.89007482  0.34967083    -0.65200
Ni1401     Ni  0.89050394  0.77354890  0.44835111     1.34900
C1402       C  0.98484294  0.89529463  0.38089492     0.85900
O1403       O  0.92179447  0.74879717  0.38246158    -0.78200
O1404       O  0.91165347  0.74351631  0.43823847    -0.88500
C1405       C  0.93566258  0.79864129  0.30297302     0.85400
O1406       O  0.84731382  0.74284345  0.42295760    -0.66700
O1407       O  0.91678593  0.89418325  0.33200273    -0.86000
C1408       C  0.83878775  0.73917510  0.39186994     0.86300
C1409       C  0.92047938  0.73407331  0.41130030     1.07800
H1410       H  0.88063773  0.81881048  0.34904552     0.39600
O1411       O  0.90573856  0.82870646  0.35702789    -1.08600
O1412       O  0.96050260  0.87990494  0.40330716    -0.65300
Ni1413     Ni  0.90807377  0.84594603  0.40131971     1.26300
O1414       O  0.86160832  0.75615825  0.36874051    -0.65500
O1415       O  0.90029495  0.88576934  0.38658654    -0.77800
C1416       C  0.87983172  0.83467650  0.46529948     0.85700
O1417       O  0.90573390  0.85830093  0.44713066    -0.65000
Ni1418     Ni  0.93526052  0.86156629  0.32309965     1.27400
Ni1419     Ni  0.91383589  0.78874017  0.36878050     1.26100
H1420       H  0.94292849  0.81730194  0.42028429     0.40200
O1421       O  0.67414966  0.55662475  0.47032346    -0.79800
O1422       O  0.71842221  0.59660326  0.32734108    -0.64400
O1423       O  0.67093272  0.58926265  0.40974254    -1.11000
C1424       C  0.57539539  0.97458046  0.35363647     1.07100
O1425       O  0.66698203  0.58647242  0.30246118    -0.77700
O1426       O  0.60556607  0.56780472  0.33654868    -0.65200
Ni1427     Ni  0.69803107  0.60474564  0.45039126     1.34900
C1428       C  0.59221761  0.56790277  0.36475028     0.85900
O1429       O  0.73565173  0.64349935  0.37952092    -0.78200
O1430       O  0.72395253  0.65346299  0.43209216    -0.88500
C1431       C  0.69961843  0.59228257  0.30059116     0.85400
O1432       O  0.73815923  0.59752130  0.43989818    -0.66700
O1433       O  0.58769510  0.99136940  0.32559704    -0.86000
C1434       C  0.74385127  0.58216016  0.41555104     0.86300
C1435       C  0.74197017  0.66419162  0.40487664     1.07800
H1436       H  0.66558485  0.52961535  0.35951373     0.39600
O1437       O  0.65628926  0.54647550  0.36101188    -1.08600
O1438       O  0.59922426  0.55547919  0.39182136    -0.65300
Ni1439     Ni  0.63384438  0.53902923  0.40355021     1.26300
O1440       O  0.72490912  0.57400848  0.38833847    -0.65500
O1441       O  0.59048266  0.98730672  0.38220836    -0.77800
C1442       C  0.64020321  0.53290714  0.47148791     0.85700
O1443       O  0.61737882  0.53181889  0.44907170    -0.65000
Ni1444     Ni  0.62839232  0.54143125  0.32139005     1.27400
Ni1445     Ni  0.69631797  0.59470480  0.36946856     1.26100
H1446       H  0.65956826  0.60433098  0.40690919     0.40200
O1447       O  0.61862093  0.93193056  0.53346895    -0.79800
O1448       O  0.59680733  0.88249264  0.68039006    -0.64400
O1449       O  0.57436885  0.89537021  0.58914589    -1.11000
C1450       C  0.58812706  0.49898605  0.64707288     1.07100
O1451       O  0.56100861  0.90273829  0.70005634    -0.77700
O1452       O  0.52157475  0.91209586  0.65125401    -0.65200
Ni1453     Ni  0.59412641  0.88301044  0.55287391     1.34900
C1454       C  0.51166677  0.91410820  0.62125186     0.85900
O1455       O  0.57700262  0.83861492  0.62635928    -0.78200
O1456       O  0.57132770  0.83353658  0.56982072    -0.88500
C1457       C  0.57937833  0.88632556  0.70406967     0.85400
O1458       O  0.63964835  0.89293359  0.57346785    -0.66700
O1459       O  0.57095113  0.98638110  0.64978040    -0.86000
C1460       C  0.65456142  0.90411173  0.60221843     0.86300
C1461       C  0.57013333  0.82018621  0.59928788     1.07800
H1462       H  0.62101114  0.95333284  0.64518198     0.39600
O1463       O  0.59532739  0.93708405  0.63981906    -1.08600
O1464       O  0.53446315  0.92912460  0.59751508    -0.65300
Ni1465     Ni  0.58637711  0.94511321  0.59370797     1.26300
O1466       O  0.63774215  0.90735322  0.62674550    -0.65500
O1467       O  0.59777477  0.99466562  0.60000298    -0.77800
C1468       C  0.60561483  0.95326506  0.52800510     0.85700
O1469       O  0.58115327  0.95223194  0.54672739    -0.65000
Ni1470     Ni  0.56724436  0.94367171  0.67262843     1.27400
Ni1471     Ni  0.58624894  0.88796740  0.63411061     1.26100
H1472       H  0.54801047  0.88035644  0.58655031     0.40200
O1473       O  0.53907452  0.67007316  0.55574421    -0.79800
O1474       O  0.61829550  0.70312793  0.69289947    -0.64400
O1475       O  0.58753915  0.66542649  0.60358569    -1.11000
C1476       C  0.98241605  0.57219827  0.63785310     1.07100
O1477       O  0.60772425  0.64788466  0.70751482    -0.77700
O1478       O  0.57639810  0.58940373  0.66807771    -0.65200
Ni1479     Ni  0.59115629  0.69581344  0.56639794     1.34900
C1480       C  0.57161100  0.58001763  0.63747913     0.85900
O1481       O  0.65112822  0.72584101  0.63114088    -0.78200
O1482       O  0.64322301  0.72355795  0.57453608    -0.88500
C1483       C  0.61908722  0.68106103  0.71500665     0.85400
O1484       O  0.58465376  0.73145468  0.58910378    -0.66700
O1485       O  0.00135234  0.58073838  0.66507532    -0.86000
C1486       C  0.58023665  0.73679523  0.61947718     0.86300
C1487       C  0.66314087  0.73607801  0.60113484     1.07800
H1488       H  0.54239028  0.65560933  0.66826937     0.39600
O1489       O  0.55745925  0.64601066  0.66027412    -1.08600
O1490       O  0.55738322  0.59214519  0.61563807    -0.65300
Ni1491     Ni  0.54000112  0.62714996  0.61628076     1.26300
O1492       O  0.58361187  0.71859919  0.64404891    -0.65500
O1493       O  0.99353629  0.59051928  0.61056885    -0.77800
C1494       C  0.51834241  0.63563681  0.55239772     0.85700
O1495       O  0.52288747  0.61311211  0.57098869    -0.65000
Ni1496     Ni  0.55789763  0.61367807  0.69421555     1.27400
Ni1497     Ni  0.60421795  0.68632928  0.64707108     1.26100
H1498       H  0.60211949  0.65438561  0.59796202     0.40200
O1499       O  0.93381168  0.59487086  0.46832287    -0.79800
O1500       O  0.88059627  0.57663714  0.31612265    -0.64400
O1501       O  0.89296318  0.55807431  0.40964985    -1.11000
C1502       C  0.51021695  0.57798879  0.38688339     1.07100
O1503       O  0.89155343  0.53168750  0.30729887    -0.77700
O1504       O  0.92411066  0.50297362  0.34471769    -0.65200
Ni1505     Ni  0.88777116  0.58402464  0.44541684     1.34900
C1506       C  0.91362320  0.49036364  0.37408835     0.85900
O1507       O  0.83829109  0.56252671  0.37104963    -0.78200
O1508       O  0.84123330  0.57528661  0.42627113    -0.88500
C1509       C  0.88084746  0.55337241  0.29632840     0.85400
O1510       O  0.91193777  0.63143394  0.42491238    -0.66700
O1511       O  0.49524938  0.57014279  0.35755761    -0.86000
C1512       C  0.91485635  0.64266752  0.39458407     0.86300
C1513       C  0.82479150  0.56749665  0.39745694     1.07800
H1514       H  0.95134954  0.60094766  0.35568395     0.39600
O1515       O  0.93397955  0.57515821  0.35906786    -1.08600
O1516       O  0.91621055  0.51038122  0.39843987    -0.65300
Ni1517     Ni  0.94001567  0.56262609  0.40398700     1.26300
O1518       O  0.90668869  0.62158555  0.36937075    -0.65500
O1519       O  0.49490257  0.58220077  0.41238307    -0.77800
C1520       C  0.94963951  0.57564045  0.47164620     0.85700
O1521       O  0.94517975  0.55227970  0.44996177    -0.65000
Ni1522     Ni  0.94072974  0.54970620  0.32387155     1.27400
Ni1523     Ni  0.88610864  0.56908383  0.36384707     1.26100
H1524       H  0.87511784  0.53254179  0.41364118     0.40200
O1525       O  0.84288647  0.93283828  0.79346978    -0.79800
O1526       O  0.88272411  0.90813305  0.94267709    -0.64400
O1527       O  0.85127331  0.89550939  0.84994080    -1.11000
C1528       C  0.75644563  0.91478782  0.88972115     1.07100
O1529       O  0.82475992  0.87325341  0.95876326    -0.77700
O1530       O  0.76333590  0.84879663  0.92050138    -0.65200
Ni1531     Ni  0.88144655  0.92621715  0.81495358     1.34900
C1532       C  0.76020010  0.83247609  0.89310108     0.85900
O1533       O  0.91008210  0.89666617  0.88526024    -0.78200
O1534       O  0.92142690  0.92023995  0.83225048    -0.88500
C1535       C  0.85910174  0.88586074  0.96356332     0.85400
O1536       O  0.89954978  0.97191170  0.83773400    -0.66700
O1537       O  0.76955316  0.91638700  0.91952570    -0.86000
C1538       C  0.91101770  0.98051586  0.86792943     0.86300
C1539       C  0.92923431  0.90693709  0.85839550     1.07800
H1540       H  0.84007190  0.94046432  0.90160293     0.39600
O1541       O  0.82991192  0.91417567  0.90083590    -1.08600
O1542       O  0.78060152  0.84827697  0.86802105    -0.65300
Ni1543     Ni  0.80914715  0.89984247  0.85691288     1.26300
O1544       O  0.90308489  0.95675015  0.89140678    -0.65500
O1545       O  0.76770643  0.90594286  0.86416976    -0.77800
C1546       C  0.80992298  0.90718155  0.78821761     0.85700
O1547       O  0.79161297  0.88605425  0.81200954    -0.65000
Ni1548     Ni  0.79841887  0.89559148  0.93802575     1.27400
Ni1549     Ni  0.86963964  0.90445591  0.89523564     1.26100
H1550       H  0.84386697  0.87041051  0.84454918     0.40200
O1551       O  0.93179425  0.82851252  0.21239358    -0.79800
O1552       O  0.91970696  0.88536940  0.07135986    -0.64400
O1553       O  0.89447002  0.83580637  0.15690489    -1.11000
C1554       C  0.91113034  0.74833889  0.09844977     1.07100
O1555       O  0.87441725  0.83385929  0.05066291    -0.77700
O1556       O  0.83994111  0.76676246  0.08281593    -0.65200
Ni1557     Ni  0.91327478  0.86051820  0.19812598     1.34900
C1558       C  0.83051771  0.75394464  0.11249079     0.85900
O1559       O  0.90258739  0.90238203  0.13025792    -0.78200
O1560       O  0.89689940  0.89499668  0.18649455    -0.88500
C1561       C  0.89698781  0.86819816  0.04751664     0.85400
O1562       O  0.96124270  0.89496046  0.18398360    -0.66700
O1563       O  0.90050594  0.75994091  0.07290238    -0.86000
C1564       C  0.97762073  0.90423847  0.15616826     0.86300
C1565       C  0.89790606  0.91197984  0.15905530     1.07800
H1566       H  0.94066622  0.83219195  0.09756048     0.39600
O1567       O  0.91501916  0.82303814  0.10215421    -1.08600
O1568       O  0.85293251  0.76468966  0.13721210    -0.65300
Ni1569     Ni  0.90454866  0.79776769  0.14435472     1.26300
O1570       O  0.96137655  0.89161355  0.12776542    -0.65500
O1571       O  0.91487409  0.76083232  0.12831230    -0.77800
C1572       C  0.91279885  0.79371593  0.21406464     0.85700
O1573       O  0.89550200  0.77537326  0.18838671    -0.65000
Ni1574     Ni  0.88764931  0.79721268  0.06349079     1.27400
Ni1575     Ni  0.90901091  0.86289974  0.11554937     1.26100
H1576       H  0.86812869  0.82530384  0.15798170     0.40200
O1577       O  0.66939831  0.55891236  0.20942732    -0.79800
O1578       O  0.61600823  0.53436560  0.05497814    -0.64400
O1579       O  0.66146693  0.54525960  0.14163581    -1.11000
C1580       C  0.74070402  0.66454025  0.09663469     1.07100
O1581       O  0.67013898  0.54938088  0.03448359    -0.77700
O1582       O  0.73329330  0.58018262  0.07351409    -0.65200
Ni1583     Ni  0.63098711  0.52530675  0.18007548     1.34900
C1584       C  0.74631725  0.58296976  0.10331630     0.85900
O1585       O  0.60525825  0.99437560  0.09962304    -0.78200
O1586       O  0.58701777  0.99773257  0.15042020    -0.88500
C1587       C  0.63505761  0.53231389  0.03187296     0.85400
O1588       O  0.61324795  0.55847334  0.17275329    -0.66700
O1589       O  0.73454992  0.64621403  0.06970387    -0.86000
C1590       C  0.59740466  0.56160124  0.14613444     0.86300
C1591       C  0.58229603  0.98105354  0.12288489     1.07800
H1592       H  0.65871206  0.60208880  0.08797411     0.39600
O1593       O  0.67146424  0.58840654  0.09169124    -1.08600
O1594       O  0.73361981  0.59123473  0.12815048    -0.65300
Ni1595     Ni  0.69259869  0.59860515  0.13546058     1.26300
O1596       O  0.60195015  0.55229473  0.11670982    -0.65500
O1597       O  0.72430382  0.65045276  0.12456316    -0.77800
C1598       C  0.69742037  0.59090554  0.20834154     0.85700
O1599       O  0.71011318  0.60920194  0.18124863    -0.60200
Ni1600     Ni  0.70180995  0.59731390  0.05412753     1.27400
Ni1601     Ni  0.63680860  0.53857929  0.09894783     1.26100
H1602       H  0.67631257  0.53360419  0.14076047     0.40200
O1603       O  0.57535589  0.90439275  0.79754444    -0.79800
O1604       O  0.59334497  0.96056512  0.94379878    -0.64400
O1605       O  0.61084500  0.94667373  0.85374978    -1.11000
C1606       C  0.58556338  0.82886272  0.89349647     1.07100
O1607       O  0.62063804  0.93092042  0.96609905    -0.77700
O1608       O  0.64765681  0.89756350  0.93070569    -0.65200
Ni1609     Ni  0.58165896  0.94884989  0.81766850     1.34900
C1610       C  0.66757587  0.91379524  0.90559830     0.85900
O1611       O  0.61065471  0.00311998  0.88779396    -0.78200
O1612       O  0.58786445  0.99441139  0.83443496    -0.88500
C1613       C  0.61272157  0.95644223  0.96672454     0.85400
O1614       O  0.53446874  0.92085553  0.83845189    -0.66700
O1615       O  0.57967363  0.83753799  0.92235126    -0.86000
C1616       C  0.52524052  0.92323916  0.86809757     0.86300
C1617       C  0.59736969  0.51441772  0.85710478     1.07800
H1618       H  0.56057366  0.88815953  0.90172419     0.39600
O1619       O  0.58699410  0.90309308  0.90359859    -1.08600
O1620       O  0.65529546  0.92033816  0.87801863    -0.65300
Ni1621     Ni  0.60507234  0.89943353  0.86137631     1.26300
O1622       O  0.54857601  0.93809402  0.89176659    -0.65500
O1623       O  0.59785024  0.85122803  0.86882371    -0.77800
C1624       C  0.60134788  0.89751181  0.79305080     0.85700
O1625       O  0.62192200  0.89876605  0.81751902    -0.65000
Ni1626     Ni  0.59930717  0.88494812  0.94285361     1.27400
Ni1627     Ni  0.59985921  0.95368681  0.89785989     1.26100
H1628       H  0.63632333  0.96414692  0.84933279     0.40200
O1629       O  0.60428942  0.66288849  0.81236210    -0.79800
O1630       O  0.53681315  0.61610229  0.95319141    -0.64400
O1631       O  0.55917399  0.65613806  0.86410344    -1.11000
C1632       C  0.67311559  0.74341707  0.91529454     1.07100
O1633       O  0.55984586  0.67181720  0.97428927    -0.77700
O1634       O  0.59810183  0.73477883  0.94173534    -0.65200
Ni1635     Ni  0.55571290  0.62775182  0.82668155     1.34900
C1636       C  0.58712483  0.74146362  0.91388825     0.85900
O1637       O  0.00486818  0.59816603  0.88090254    -0.78200
O1638       O  0.01780912  0.59181008  0.82749810    -0.88500
C1639       C  0.53624955  0.63778442  0.97461374     0.85400
O1640       O  0.57622926  0.60058241  0.84725967    -0.66700
O1641       O  0.65914275  0.72788865  0.94334976    -0.86000
C1642       C  0.57692635  0.58973031  0.87715758     0.86300
C1643       C  0.99629415  0.58172668  0.85255850     1.07800
H1644       H  0.61282656  0.65985037  0.91869751     0.39600
O1645       O  0.59762721  0.67117605  0.91750058    -1.08600
O1646       O  0.58619923  0.72596997  0.88636456    -0.65300
Ni1647     Ni  0.60707917  0.69575638  0.87476095     1.26300
O1648       O  0.56561196  0.59949386  0.90206843    -0.65500
O1649       O  0.65546991  0.73479157  0.88714982    -0.77800
C1650       C  0.61357840  0.69607950  0.80585475     0.85700
O1651       O  0.61381289  0.71611960  0.82947796    -0.65000
Ni1652     Ni  0.60914360  0.69838027  0.95748529     1.27400
Ni1653     Ni  0.54801276  0.63368847  0.90760673     1.26100
H1654       H  0.54291149  0.66589286  0.85943640     0.40200
O1655       O  0.89858347  0.55204877  0.19754528    -0.79800
O1656       O  0.97156834  0.58870248  0.05723338    -0.64400
O1657       O  0.94470930  0.59506992  0.14715978    -1.11000
C1658       C  0.83660490  0.58218663  0.08987739     1.07100
O1659       O  0.95765019  0.63167771  0.04281801    -0.77700
O1660       O  0.91550704  0.65253376  0.07650477    -0.65200
Ni1661     Ni  0.94747535  0.56633996  0.18345780     1.34900
C1662       C  0.92012404  0.66225886  0.10707735     0.85900
O1663       O  0.50402736  0.59112635  0.11061872    -0.78200
O1664       O  0.50230464  0.57039762  0.16268634    -0.88500
C1665       C  0.97632158  0.61575601  0.03848241     0.85400
O1666       O  0.92738838  0.52105518  0.16046601    -0.66700
O1667       O  0.85474413  0.58789580  0.06293191    -0.86000
C1668       C  0.92630889  0.51260844  0.12988070     0.86300
C1669       C  0.51750506  0.58067210  0.13413728     1.07800
H1670       H  0.89463893  0.55642713  0.08596166     0.39600
O1671       O  0.91049537  0.58202445  0.09127586    -1.08600
O1672       O  0.91875672  0.64140235  0.13124578    -0.65300
Ni1673     Ni  0.89728353  0.58905849  0.13481221     1.26300
O1674       O  0.93778705  0.53631210  0.10586614    -0.65500
O1675       O  0.84996517  0.58298002  0.11960301    -0.77800
C1676       C  0.88813893  0.57491932  0.20385201     0.85700
O1677       O  0.88676857  0.59524690  0.18034731    -0.65000
Ni1678     Ni  0.90623342  0.60884549  0.05416573     1.27400
Ni1679     Ni  0.95822712  0.58934785  0.10319476     1.26100
H1680       H  0.96086924  0.62035662  0.15333242     0.40200
C1681       C  0.00606160  0.63253666  0.01337993    -0.15300
C1682       C  0.50637533  0.62558479  0.99906959    -0.30500
H1683       H  0.01785257  0.66191729  0.00907665     0.13700
H1684       H  0.50229222  0.64704559  0.00934304     0.14300
C1685       C  0.57677994  0.77005919  0.91484296    -0.15300
C1686       C  0.58081744  0.79206215  0.88850622    -0.30500
H1687       H  0.57241301  0.77749034  0.93960490     0.13700
H1688       H  0.58707524  0.78580825  0.86400831     0.14300
C1689       C  0.60071597  0.55095047  0.85693373    -0.15300
C1690       C  0.58914372  0.56248958  0.88274903    -0.30500
H1691       H  0.60533521  0.56490890  0.83264805     0.13700
H1692       H  0.58340086  0.54803177  0.90683347     0.14300
C1693       C  0.61657926  0.50689182  0.00352378    -0.15300
C1694       C  0.62925847  0.98300264  0.99412447    -0.30500
H1695       H  0.58873400  0.49975821  0.99597823     0.13700
H1696       H  0.64880699  0.98039437  0.01091150     0.14300
C1697       C  0.55029338  0.57769987  0.12681578    -0.15300
C1698       C  0.57029971  0.57355798  0.15150366    -0.30500
H1699       H  0.55657788  0.57653799  0.10069752     0.13700
H1700       H  0.56431591  0.57592414  0.17746794     0.14300
C1701       C  0.77901855  0.57856616  0.10997676    -0.15300
C1702       C  0.79877499  0.57628154  0.08506550    -0.30500
H1703       H  0.78942052  0.58157417  0.13573171     0.13700
H1704       H  0.78877435  0.57448690  0.05926768     0.14300
C1705       C  0.54763075  0.94608582  0.11710363    -0.15300
C1706       C  0.52776082  0.92648638  0.14343195    -0.30500
H1707       H  0.53710032  0.93827318  0.09157369     0.13700
H1708       H  0.53970142  0.93476416  0.16854726     0.14300
C1709       C  0.76989829  0.70364139  0.09361664    -0.15300
C1710       C  0.79282100  0.72278758  0.11894478    -0.30500
H1711       H  0.77732887  0.71435009  0.06811874     0.13700
H1712       H  0.78666588  0.71150070  0.14436535     0.14300
C1713       C  0.89673367  0.94640346  0.16152508    -0.15300
C1714       C  0.90760091  0.97120254  0.13603885    -0.30500
H1715       H  0.89302680  0.95413145  0.18638235     0.13700
H1716       H  0.92011290  0.46719797  0.09826422     0.14300
C1717       C  0.91789441  0.71789548  0.09160686    -0.15300
C1718       C  0.92433036  0.69836752  0.11531851    -0.30500
H1719       H  0.91376877  0.70898450  0.06561655     0.13700
H1720       H  0.92761117  0.70636128  0.14152544     0.14300
C1721       C  0.71088001  0.77496976  0.91682532    -0.15300
C1722       C  0.72950459  0.79433187  0.88963179    -0.30500
H1723       H  0.72198472  0.78524142  0.94177628     0.13700
H1724       H  0.71947798  0.78395521  0.86450329     0.14300
C1725       C  0.94063511  0.52511327  0.87193243    -0.15300
C1726       C  0.96028505  0.54846533  0.84717861    -0.30500
H1727       H  0.94738914  0.02630644  0.90167131     0.13700
H1728       H  0.95258510  0.54012276  0.82117825     0.14300
C1729       C  0.70622086  0.92314154  0.90952850    -0.15300
C1730       C  0.72498317  0.92094906  0.88394228    -0.30500
H1731       H  0.71661103  0.92431884  0.93510393     0.13700
H1732       H  0.71363103  0.91768647  0.85850982     0.14300
C1733       C  0.96297114  0.90461950  0.85569041    -0.15300
C1734       C  0.98856128  0.91515624  0.88025411    -0.30500
H1735       H  0.97024332  0.90153992  0.83042507     0.13700
H1736       H  0.48056457  0.91723447  0.90041229     0.14300
C1737       C  0.86944647  0.86944595  0.99223337    -0.15300
C1738       C  0.89446648  0.88807887  0.01671245    -0.30500
H1739       H  0.85150921  0.84001813  0.99547859     0.13700
H1740       H  0.91149095  0.91775350  0.01490648     0.14300
C1741       C  0.87966487  0.57843431  0.23914316    -0.15300
C1742       C  0.86989572  0.54984256  0.26044046    -0.30500
H1743       H  0.88798278  0.60556923  0.24861663     0.13700
H1744       H  0.86215802  0.52329690  0.24972862     0.14300
C1745       C  0.62159160  0.70901117  0.77026399    -0.15300
C1746       C  0.63320014  0.69181872  0.74979853    -0.30500
H1747       H  0.61027664  0.72551647  0.75980913     0.13700
H1748       H  0.64382643  0.67522192  0.76159236     0.14300
C1749       C  0.48789033  0.62282549  0.52731458    -0.15300
C1750       C  0.97668187  0.58309367  0.49933525    -0.30500
H1751       H  0.48101925  0.64300108  0.51714120     0.13700
H1752       H  0.97965023  0.56068423  0.51021632     0.14300
C1753       C  0.57858412  0.87132685  0.73787305    -0.15300
C1754       C  0.60749329  0.88908493  0.75883868    -0.30500
H1755       H  0.55143543  0.85651805  0.74886103     0.13700
H1756       H  0.63504229  0.90502710  0.74892404     0.14300
C1757       C  0.57320919  0.76738324  0.62604655    -0.15300
C1758       C  0.56263666  0.78192118  0.60047284    -0.30500
H1759       H  0.58165842  0.78100086  0.65018393     0.13700
H1760       H  0.55410568  0.76747990  0.57669380     0.14300
C1761       C  0.59247176  0.53578368  0.65078635    -0.15300
C1762       C  0.58036815  0.55144214  0.62758323    -0.30500
H1763       H  0.60009999  0.54732982  0.67584317     0.13700
H1764       H  0.57163757  0.53952984  0.60275288     0.14300
C1765       C  0.71295640  0.60850033  0.24102905    -0.15300
C1766       C  0.71251207  0.58816258  0.26781789    -0.30500
H1767       H  0.71557771  0.63525376  0.24483970     0.13700
H1768       H  0.71046224  0.56169510  0.26372161     0.14300
C1769       C  0.62990956  0.50442915  0.49774131    -0.15300
C1770       C  0.62242808  0.98160186  0.50147086    -0.30500
H1771       H  0.65251722  0.50212331  0.50933109     0.13700
H1772       H  0.64881192  0.98687628  0.49222817     0.14300
C1773       C  0.56519228  0.58059199  0.36448243    -0.15300
C1774       C  0.54599751  0.57936530  0.39150820    -0.30500
H1775       H  0.55738674  0.58662705  0.33984105     0.13700
H1776       H  0.55391977  0.57440400  0.41649610     0.14300
C1777       C  0.77497903  0.57533821  0.41952406    -0.15300
C1778       C  0.78882221  0.56590486  0.39400284    -0.30500
H1779       H  0.78915772  0.58183040  0.44383614     0.13700
H1780       H  0.77533304  0.56029331  0.36938435     0.14300
C1781       C  0.93969669  0.79113430  0.26796043    -0.15300
C1782       C  0.91054199  0.77554814  0.24690550    -0.30500
H1783       H  0.96629286  0.80993416  0.25717275     0.13700
H1784       H  0.88334209  0.75692323  0.25651239     0.14300
C1785       C  0.90828828  0.95803289  0.38116175    -0.15300
C1786       C  0.90206602  0.93582395  0.35500580    -0.30500
H1787       H  0.90440241  0.44266809  0.40565505     0.13700
H1788       H  0.90125678  0.94568571  0.32962539     0.14300
C1789       C  0.92474096  0.68154539  0.38858406    -0.15300
C1790       C  0.92711636  0.70271328  0.41458949    -0.30500
H1791       H  0.92336779  0.69041527  0.36293766     0.13700
H1792       H  0.92752658  0.69309907  0.44016145     0.14300
C1793       C  0.51596725  0.92613562  0.37671981    -0.15300
C1794       C  0.54057307  0.93951947  0.35175100    -0.30500
H1795       H  0.52344700  0.93783074  0.40171268     0.13700
H1796       H  0.53238207  0.92753052  0.32688764     0.14300
C1797       C  0.80083649  0.71198807  0.38243806    -0.15300
C1798       C  0.77403010  0.70125110  0.40493862    -0.30500
H1799       H  0.79617287  0.69711194  0.35917730     0.13700
H1800       H  0.77919529  0.71706178  0.42771943     0.14300
C1801       C  0.80460710  0.92976525  0.73234598    -0.15300
C1802       C  0.79359646  0.90139290  0.75392627    -0.30500
H1803       H  0.82086302  0.95733789  0.74230081     0.13700
H1804       H  0.77811208  0.87340351  0.74484483     0.14300
C1805       C  0.70149519  0.76538887  0.59531995    -0.15300
C1806       C  0.72273084  0.79014090  0.61855879    -0.30500
H1807       H  0.71007049  0.77037051  0.56925641     0.13700
H1808       H  0.71376680  0.78616168  0.64446696     0.14300
C1809       C  0.93438030  0.51407110  0.61318516    -0.15300
C1810       C  0.94711004  0.53779286  0.63885925    -0.30500
H1811       H  0.94397559  0.02452113  0.59425291     0.13700
H1812       H  0.93541128  0.52838161  0.66364870     0.14300
C1813       C  0.71108805  0.90813919  0.58252675    -0.15300
C1814       C  0.69253470  0.91147827  0.60787197    -0.30500
H1815       H  0.69949272  0.90369301  0.55712800     0.13700
H1816       H  0.70355287  0.91547245  0.63345426     0.14300
C1817       C  0.94616767  0.89158722  0.64561505    -0.15300
C1818       C  0.96972913  0.89995441  0.62019469    -0.30500
H1819       H  0.95408318  0.88746512  0.67092379     0.13700
H1820       H  0.46474894  0.90772558  0.58982489     0.14300
C1821       C  0.87703448  0.87759009  0.50595407    -0.15300
C1822       C  0.86144702  0.84521857  0.49029647    -0.30500
H1823       H  0.90511172  0.89838403  0.50032089     0.13700
H1824       H  0.83425471  0.82387756  0.49786187     0.14300
loop_ 
_geom_bond_atom_site_label_1 
_geom_bond_atom_site_label_2 
_geom_bond_distance 
_geom_bond_site_symmetry_2 
_ccdc_geom_bond_type 
O1           Ni7   1.939       .  S
O1           C22   1.275       .  A
O2          Ni25   1.934       .  S
O2           C11   1.268       .  A
O3           Ni7   1.899       .  S
O3          Ni25   1.911       .  S
O3          Ni19   1.901       .  S
O3           H26   0.966       .  S
C4           O21   1.276       .  A
C4           O13   1.278       .  A
C4          C449   1.472       .  S
O5          Ni24   1.915       .  S
O5           C11   1.266       .  A
O6          Ni24   1.897       .  S
O6            C8   1.267       .  A
Ni7          O10   1.919       .  S
Ni7          O12   1.915       .  S
C8           O18   1.275       .  A
C8          C897   1.484       .  S
O9          Ni25   1.925       .  S
O9           C15   1.283       .  A
O10          C15   1.277       .  A
C11         C433   1.483       .  S
O12          C14   1.271       .  A
O13         Ni24   1.925       .  S
C14          O20   1.267       .  A
C14         C438   1.482       .  S
C15         C445   1.470       .  S
H16          O17   0.966       .  S
O17         Ni25   1.920       .  S
O17         Ni19   1.902       .  S
O17         Ni24   1.896       .  S
O18         Ni19   1.941       .  S
Ni19         O23   1.920       .  S
Ni19         O21   1.910       .  S
O20         Ni25   1.919       .  S
C22          O23   1.270       .  A
C22         C453   1.489       .  S
O27         Ni33   1.937       .  S
O27          C48   1.274       .  A
O28         Ni51   1.913       .  S
O28          C37   1.265       .  A
O29         Ni33   1.899       .  S
O29         Ni51   1.918       .  S
O29         Ni45   1.925       .  S
O29          H52   0.966       .  S
C30          O47   1.283       .  A
C30          O39   1.275       .  A
C30         C418   1.466       .  S
O31         Ni50   1.925       .  S
O31          C37   1.267       .  A
O32         Ni50   1.900       .  S
O32          C34   1.268       .  A
Ni33         O36   1.940       .  S
Ni33         O38   1.900       .  S
C34          O44   1.271       .  A
C34        C1337   1.483       .  S
O35         Ni51   1.896       .  S
O35          C41   1.265       .  A
O36          C41   1.281       .  A
C37         C413   1.468       .  S
O38          C40   1.270       .  A
O39         Ni50   1.910       .  S
C40          O46   1.274       .  A
C40         C429   1.482       .  S
C41         C422   1.479       .  S
H42          O43   0.966       .  S
O43         Ni51   1.892       .  S
O43         Ni45   1.904       .  S
O43         Ni50   1.889       .  S
O44         Ni45   1.934       .  S
Ni45         O49   1.925       .  S
Ni45         O47   1.930       .  S
O46         Ni51   1.936       .  S
C48          O49   1.273       .  A
C48         C454   1.484       .  S
O53         Ni59   1.944       .  S
O53          C74   1.275       .  A
O54         Ni77   1.945       .  S
O54          C63   1.278       .  A
O55         Ni59   1.889       .  S
O55         Ni77   1.913       .  S
O55         Ni71   1.900       .  S
O55          H78   0.966       .  S
C56          O73   1.275       .  A
C56          O65   1.281       .  A
C56         C426   1.474       .  S
O57         Ni76   1.915       .  S
O57          C63   1.267       .  A
O58         Ni76   1.905       .  S
O58          C60   1.267       .  A
Ni59         O62   1.927       .  S
Ni59         O64   1.896       .  S
C60          O70   1.270       .  A
C60         C405   1.470       .  S
O61         Ni77   1.924       .  S
O61          C67   1.280       .  A
O62          C67   1.280       .  A
C63         C398   1.479       .  S
O64          C66   1.266       .  A
O65        Ni532   1.931       .  S
C66          O72   1.281       .  A
C66         C409   1.479       .  S
C67         C430   1.474       .  S
H68          O69   0.966       .  S
O69         Ni77   1.915       .  S
O69         Ni71   1.903       .  S
O69         Ni76   1.890       .  S
O70         Ni71   1.925       .  S
Ni71         O75   1.903       .  S
Ni71        O529   1.922   1_545  S
O72         Ni77   1.950       .  S
O73        Ni527   1.913       .  S
C74          O75   1.264       .  A
C74         C401   1.477   1_545  S
Ni76        O521   1.917   1_545  S
O79         Ni85   1.940       .  S
O79         C100   1.276       .  A
O80        Ni103   1.899       .  S
O80          C89   1.260       .  A
O81         Ni85   1.898       .  S
O81        Ni103   1.898       .  S
O81         Ni97   1.917       .  S
O81         H104   0.966       .  S
C82         O555   1.277   1_545  A
C82         O547   1.281   1_545  A
C82         C393   1.482       .  S
O83        Ni102   1.923       .  S
O83          C89   1.270       .  A
O84        Ni102   1.893       .  S
O84          C86   1.266       .  A
Ni85         O88   1.937       .  S
Ni85         O90   1.912       .  S
C86          O96   1.272       .  A
C86        C1362   1.477   1_455  S
O87        Ni103   1.919       .  S
O87          C93   1.274       .  A
O88          C93   1.282       .  A
C89         C385   1.465       .  S
O90          C92   1.271       .  A
O91        Ni102   1.929       .  S
O91         C538   1.281       .  A
C92          O98   1.265       .  A
C92         C446   1.474       .  S
C93         C390   1.483       .  S
H94          O95   0.966       .  S
O95        Ni103   1.905       .  S
O95         Ni97   1.894       .  S
O95        Ni102   1.884       .  S
O96         Ni97   1.934       .  S
Ni97        O101   1.898       .  S
Ni97         O99   1.925       .  S
O98        Ni103   1.912       .  S
O99         C538   1.279       .  A
C100        O101   1.267       .  A
C100        C402   1.474       .  S
O105       Ni111   1.939       .  S
O105        C126   1.272       .  A
O106       Ni129   1.952       .  S
O106        C115   1.280       .  A
O107       Ni111   1.899       .  S
O107       Ni129   1.921       .  S
O107       Ni123   1.908       .  S
O107        H130   0.966       .  S
C108        O125   1.267       .  A
C108        O117   1.270       .  A
C108        C442   1.473       .  S
O109       Ni128   1.913       .  S
O109        C115   1.266       .  A
O110       Ni128   1.902       .  S
O110        C112   1.267       .  A
Ni111       O114   1.920       .  S
Ni111       O116   1.900       .  S
C112        O122   1.274       .  A
C112        C394   1.476       .  S
O113       Ni129   1.931       .  S
O113        C119   1.282       .  A
O114        C119   1.275       .  A
C115        C378   1.483       .  S
O116        C118   1.269       .  A
O117      Ni1040   1.924       .  S
C118        O124   1.281       .  A
C118        C389   1.480       .  S
C119        C437   1.478       .  S
H120        O121   0.966       .  S
O121       Ni129   1.921       .  S
O121       Ni123   1.906       .  S
O121       Ni128   1.903       .  S
O122       Ni123   1.936       .  S
Ni123       O127   1.905       .  S
Ni123      O1037   1.906   1_455  S
O124       Ni129   1.949       .  S
O125      Ni1035   1.910       .  S
C126        O127   1.266       .  A
C126        C381   1.478       .  S
Ni128      O1029   1.920   1_455  S
O131       Ni137   1.954       .  S
O131        C152   1.277       .  A
O132       Ni155   1.935       .  S
O132        C141   1.273       .  A
O133       Ni137   1.901       .  S
O133       Ni155   1.920       .  S
O133       Ni149   1.919       .  S
O133        H156   0.966       .  S
C134        O151   1.272   1_455  A
C134        O143   1.276   1_455  A
C134        C406   1.479       .  S
O135       Ni154   1.928       .  S
O135        C141   1.271       .  A
O136       Ni154   1.912       .  S
O136        C138   1.269       .  A
Ni137       O140   1.946       .  S
Ni137       O142   1.889       .  S
C138        O148   1.266       .  A
C138        C873   1.481   1_545  S
O139       Ni155   1.905       .  S
O139        C145   1.270       .  A
O140        C145   1.283       .  A
C141        C374   1.491       .  S
O142        C144   1.266       .  A
O143      Ni1066   1.921       .  S
C144        O150   1.282       .  A
C144        C421   1.473       .  S
C145        C410   1.483       .  S
H146        O147   0.966       .  S
O147       Ni155   1.897       .  S
O147       Ni149   1.901       .  S
O147       Ni154   1.900       .  S
O148       Ni149   1.922       .  S
Ni149       O153   1.910       .  S
Ni149      O1063   1.919       .  S
O150       Ni155   1.948       .  S
O151      Ni1061   1.914       .  S
C152        O153   1.265       .  A
C152        C382   1.488       .  S
Ni154      O1055   1.925       .  S
O157       Ni163   1.920       .  S
O157        C178   1.265       .  A
O158       Ni181   1.930       .  S
O158        C167   1.273       .  A
O159       Ni163   1.887       .  S
O159       Ni181   1.909       .  S
O159       Ni175   1.904       .  S
O159        H182   0.966       .  S
C160        O177   1.277       .  A
C160        O169   1.277       .  A
C160        C362   1.465       .  S
O161       Ni180   1.927       .  S
O161        C167   1.270       .  A
O162       Ni180   1.898       .  S
O162        C164   1.269       .  A
Ni163       O166   1.919       .  S
Ni163       O168   1.898       .  S
C164        O174   1.273       .  A
C164        C354   1.478       .  S
O165       Ni181   1.916       .  S
O165        C171   1.279       .  A
O166        C171   1.278       .  A
C167        C369   1.481       .  S
O168        C170   1.267       .  A
O169       Ni180   1.917       .  S
C170        O176   1.272       .  A
C170        C813   1.483       .  S
C171        C365   1.463       .  S
H172        O173   0.966       .  S
O173       Ni181   1.909       .  S
O173       Ni175   1.911       .  S
O173       Ni180   1.882       .  S
O174       Ni175   1.933       .  S
Ni175       O179   1.933       .  S
Ni175       O177   1.919       .  S
O176       Ni181   1.938       .  S
C178        O179   1.270       .  A
C178        C434   1.474       .  S
O183       Ni189   1.900       .  S
O183        C204   1.268       .  A
O184       Ni207   1.907       .  S
O184        C193   1.266       .  A
O185       Ni189   1.911       .  S
O185       Ni207   1.917       .  S
O185       Ni201   1.957       .  S
O185        H208   0.966       .  S
C186        O203   1.286       .  A
C186        O195   1.279       .  A
C186        C349   1.483       .  S
O187       Ni206   1.949       .  S
O187        C193   1.278       .  A
O188       Ni206   1.927       .  S
O188        C190   1.273       .  A
Ni189       O192   1.927       .  S
Ni189       O194   1.892       .  S
C190        O200   1.262       .  A
C190        C342   1.482       .  S
O191       Ni207   1.901       .  S
O191        C197   1.259       .  A
O192        C197   1.268       .  A
C193        C370   1.489       .  S
O194        C196   1.270       .  A
O195       Ni206   1.924       .  S
C196        O202   1.289       .  A
C196       C1250   1.481       .  S
C197        C345   1.477       .  S
H198        O199   0.966       .  S
O199       Ni207   1.884       .  S
O199       Ni201   1.902       .  S
O199       Ni206   1.905       .  S
O200       Ni201   1.910       .  S
Ni201       O205   1.919       .  S
Ni201       O203   1.943       .  S
O202       Ni207   1.975       .  S
C204        O205   1.268       .  A
C204        C414   1.469       .  S
O209       Ni215   1.941       .  S
O209        C230   1.275       .  A
O210       Ni233   1.902       .  S
O210        C219   1.262       .  A
O211       Ni215   1.908       .  S
O211       Ni233   1.912       .  S
O211       Ni227   1.930       .  S
O211        H234   0.966       .  S
C212        O229   1.291       .  A
C212        O221   1.275       .  A
C212        C341   1.478       .  S
O213       Ni232   1.935       .  S
O213        C219   1.274       .  A
O214       Ni232   1.922       .  S
O214        C216   1.272       .  A
Ni215       O220   1.901       .  S
Ni215       O674   1.951   1_545  S
C216        O226   1.266       .  A
C216        C333   1.486       .  S
O217       Ni689   1.900       .  S
O217        C223   1.259       .  A
O218       Ni671   1.928       .  S
O218        C223   1.270       .  A
C219        C325   1.471       .  S
O220        C222   1.269       .  A
O221       Ni232   1.905       .  S
C222        O228   1.275       .  A
C222        C330   1.480       .  S
C223        C337   1.478       .  S
H224        O225   0.966       .  S
O225       Ni233   1.891       .  S
O225       Ni227   1.901       .  S
O225       Ni232   1.900       .  S
O226       Ni227   1.918       .  S
Ni227       O231   1.928       .  S
Ni227       O229   1.956       .  S
O228       Ni233   1.940       .  S
C230        O231   1.273       .  A
C230        C397   1.489       .  S
Ni233       O673   1.902   1_545  S
O235       Ni241   1.920       .  S
O235        C256   1.265       .  A
O236       Ni259   1.918       .  S
O236        C245   1.273       .  A
O237       Ni241   1.883       .  S
O237       Ni259   1.897       .  S
O237       Ni253   1.895       .  S
O237        H260   0.966       .  S
C238        O255   1.268       .  A
C238        O247   1.280       .  A
C238        C318   1.480       .  S
O239       Ni258   1.926       .  S
O239        C245   1.270       .  A
O240       Ni258   1.892       .  S
O240        C242   1.268       .  A
Ni241       O244   1.914       .  S
Ni241       O246   1.891       .  S
C242        O252   1.271       .  A
C242        C361   1.473       .  S
O243       Ni259   1.936       .  S
O243        C705   1.285       .  A
O244        C705   1.277       .  A
C245        C326   1.473       .  S
O246        C248   1.266       .  A
O247       Ni258   1.931       .  S
C248        O254   1.270       .  A
C248       C1278   1.478   1_455  S
C249        O699   1.290       .  A
C249        O700   1.280   1_545  A
C249        C321   1.479       .  S
H250        O251   0.966       .  S
O251       Ni259   1.925       .  S
O251       Ni253   1.907       .  S
O251       Ni258   1.891       .  S
O252       Ni253   1.927       .  S
Ni253       O257   1.901       .  S
Ni253       O255   1.906       .  S
O254       Ni259   1.933       .  S
C256        O257   1.263       .  A
C256        C386   1.453       .  S
O261       Ni267   1.943       .  S
O261        C282   1.275       .  A
O262       Ni285   1.932       .  S
O262        C271   1.275       .  A
O263       Ni267   1.895       .  S
O263       Ni285   1.906       .  S
O263       Ni279   1.903       .  S
O263        H286   0.967       .  S
C264        O281   1.278       .  A
C264        O273   1.278       .  A
C264        C353   1.472       .  S
O265       Ni284   1.925       .  S
O265        C271   1.270       .  A
O266       Ni284   1.893       .  S
O266        C268   1.266       .  A
Ni267       O272   1.928       .  S
Ni267      O1182   1.930       .  S
C268        O278   1.280       .  A
C268        C317   1.472       .  S
O269      Ni1197   1.926       .  S
O269        C275   1.283       .  A
O270      Ni1179   1.922       .  S
O270        C275   1.279       .  A
C271        C314   1.479       .  S
O272        C274   1.275       .  A
O273       Ni284   1.921       .  S
C274        O280   1.270       .  A
C274        C322   1.489       .  S
C275        C358   1.467       .  S
H276        O277   0.966       .  S
O277       Ni285   1.921       .  S
O277       Ni279   1.907       .  S
O277       Ni284   1.882       .  S
O278       Ni279   1.945       .  S
Ni279       O283   1.930       .  S
Ni279       O281   1.927       .  S
O280       Ni285   1.932       .  S
C282        O283   1.273       .  A
C282        C377   1.494       .  S
Ni285      O1181   1.926   1_455  S
O287       Ni293   1.914       .  S
O287        C308   1.265       .  A
O288       Ni311   1.908       .  S
O288        C297   1.263       .  A
O289       Ni293   1.903       .  S
O289       Ni311   1.903       .  S
O289       Ni305   1.925       .  S
O289        H312   0.966       .  S
C290        O307   1.286       .  A
C290        O299   1.277       .  A
C290        C334   1.481       .  S
O291       Ni310   1.948       .  S
O291        C297   1.277       .  A
O292       Ni310   1.916       .  S
O292        C294   1.274       .  A
Ni293       O298   1.905       .  S
Ni293      O1208   1.928       .  S
C294        O304   1.273       .  A
C294        C350   1.492       .  S
O295      Ni1223   1.916   1_455  S
O295        C301   1.276       .  A
O296      Ni1205   1.934       .  S
O296        C301   1.279   1_655  A
C297        C313   1.487       .  S
O298        C300   1.267       .  A
O299       Ni310   1.921       .  S
C300        O306   1.268       .  A
C300        C802   1.477   1_545  S
C301        C329   1.477       .  S
H302        O303   0.966       .  S
O303       Ni311   1.905       .  S
O303       Ni305   1.919       .  S
O303       Ni310   1.898       .  S
O304       Ni305   1.933       .  S
Ni305       O309   1.948       .  S
Ni305       O307   1.941       .  S
O306       Ni311   1.923       .  S
C308        O309   1.274       .  A
C308        C373   1.480       .  S
Ni311      O1207   1.920       .  S
C313        H315   1.086       .  S
C313       C1226   1.341   1_554  D
C314        H316   1.087   1_455  S
C314       C1225   1.344   1_456  D
C317        H319   1.088       .  S
C317        C318   1.336       .  D
C318        H320   1.087       .  S
C321        H323   1.087       .  S
C321        C322   1.342       .  D
C322        H324   1.087       .  S
C325        H327   1.086   1_554  S
C325        C782   1.338   1_544  D
C326        H328   1.087       .  S
C326        C781   1.339   1_556  D
C329        H331   1.087       .  S
C329        C330   1.349       .  D
C330        H332   1.087       .  S
C333        H335   1.087       .  S
C333        C334   1.342       .  D
C334        H336   1.087       .  S
C337        H339   1.086       .  S
C337        C338   1.339       .  D
C338       C1108   1.469   1_455  S
C338        H340   1.088       .  S
C341        H343   1.088       .  S
C341        C342   1.336       .  D
C342        H344   1.087       .  S
C345        H347   1.087       .  S
C345        C346   1.341       .  D
C346        C756   1.475       .  S
C346        H804   1.088       .  S
H348        C802   1.087       .  S
C349        H351   1.087       .  S
C349        C350   1.346       .  D
C350        H352   1.086       .  S
C353        H355   1.087       .  S
C353        C354   1.348       .  D
C354        H356   1.086       .  S
C357        C626   1.481   1_545  S
C357        H815   1.087       .  S
C357        C358   1.343       .  D
C358        H360   1.087       .  S
H359        C813   1.087       .  S
C361        H363   1.087       .  S
C361        C362   1.345       .  D
C362        H364   1.088       .  S
C365        H367   1.087       .  S
C365        C366   1.345       .  D
C366       C1160   1.476       .  S
C366       H1280   1.087       .  S
H368       C1278   1.087       .  S
C369        H371   1.087       .  S
C369        C370   1.345   1_556  D
C370        H372   1.086   1_554  S
C373        H375   1.088       .  S
C373        C374   1.350       .  D
C374        H376   1.086       .  S
C377        H379   1.086       .  S
C377        C378   1.349       .  D
C378        H380   1.087       .  S
C381        H383   1.087       .  S
C381       C1294   1.349   1_455  D
C382        H384   1.086       .  S
C382       C1293   1.344       .  D
C385        H387   1.087       .  S
C385        C386   1.336       .  D
C386        H388   1.088       .  S
C389        H391   1.087       .  S
C389        C390   1.341       .  D
C390        H392   1.087       .  S
C393        H395   1.087       .  S
C393        C394   1.344       .  D
C394        H396   1.087       .  S
C397        H399   1.086       .  S
C397        C398   1.346       .  D
C398        H400   1.088       .  S
C401        H403   1.086       .  S
C401        C858   1.344       .  D
C402        H404   1.088       .  S
C402        C857   1.344       .  D
C405        H407   1.087       .  S
C405        C406   1.346       .  D
C406        H408   1.087       .  S
C409        H411   1.087       .  S
C409        C410   1.339       .  D
C410        H412   1.087       .  S
C413        H415   1.089       .  S
C413        C414   1.340       .  D
C414        H416   1.086       .  S
C417        C594   1.474       .  S
C417        H875   1.087       .  S
C417        C418   1.338       .  D
C418        H420   1.088       .  S
H419        C873   1.087       .  S
C421        H423   1.088       .  S
C421        C422   1.335       .  D
C422        H424   1.087       .  S
C425        C946   1.481   1_455  S
C425        H427   1.086       .  S
C425        C426   1.353       .  D
C426        H428   1.087       .  S
C429        H431   1.086       .  S
C429        C430   1.347       .  D
C430        H432   1.087       .  S
C433        H435   1.086       .  S
C433        C434   1.344       .  D
C434        H436   1.088       .  S
C437        H439   1.087       .  S
C437        C438   1.342       .  D
C438        H440   1.087       .  S
C441        C464   1.485   1_545  S
C441        H899   1.087       .  S
C441        C442   1.350       .  D
C442        H444   1.087       .  S
H443        C897   1.087       .  S
C445        H447   1.087       .  S
C445        C446   1.339       .  D
C446        H448   1.087       .  S
C449        H451   1.087       .  S
C449        C450   1.346       .  D
C450        C998   1.473       .  S
C450       H1364   1.087       .  S
H452       C1362   1.087       .  S
C453        H455   1.086       .  S
C453        C454   1.347       .  D
C454        H456   1.087       .  S
O457       Ni463   1.952       .  S
O457        C478   1.279       .  A
O458       Ni481   1.928       .  S
O458        C467   1.266       .  A
O459       Ni463   1.899       .  S
O459       Ni481   1.915       .  S
O459       Ni475   1.902       .  S
O459        H482   0.966       .  S
C460        O477   1.277       .  A
C460        O469   1.277       .  A
C460        C905   1.469       .  S
O461       Ni480   1.915       .  S
O461        C467   1.266       .  A
O462       Ni480   1.898       .  S
O462        C464   1.268       .  A
Ni463       O466   1.936       .  S
Ni463       O468   1.917       .  S
C464        O474   1.274       .  A
O465       Ni481   1.909       .  S
O465        C471   1.276       .  A
O466        C471   1.282       .  A
C467        C889   1.480       .  S
O468        C470   1.271       .  A
O469       Ni480   1.918       .  S
C470        O476   1.267       .  A
C470        C894   1.483       .  S
C471        C901   1.471       .  S
H472        O473   0.966       .  S
O473       Ni481   1.912       .  S
O473       Ni475   1.902       .  S
O473       Ni480   1.892       .  S
O474       Ni475   1.940       .  S
Ni475       O479   1.912       .  S
Ni475       O477   1.919       .  S
O476       Ni481   1.923       .  S
C478        O479   1.269       .  A
C478        C909   1.489       .  S
O483       Ni489   1.938       .  S
O483        C504   1.275       .  A
O484       Ni507   1.919       .  S
O484        C493   1.267       .  A
O485       Ni489   1.893       .  S
O485       Ni507   1.912       .  S
O485       Ni501   1.926       .  S
O485        H508   0.966       .  S
C486        O503   1.284       .  A
C486        O495   1.276       .  A
C486        C874   1.475       .  S
O487       Ni506   1.919       .  S
O487        C493   1.266       .  A
O488       Ni506   1.894       .  S
O488        C490   1.267       .  A
Ni489       O492   1.941       .  S
Ni489       O494   1.895       .  S
C490        O500   1.272       .  A
C490       C1793   1.481       .  S
O491       Ni507   1.908       .  S
O491        C497   1.269       .  A
O492        C497   1.282       .  A
C493        C869   1.466       .  S
O494        C496   1.269       .  A
O495       Ni506   1.914       .  S
C496        O502   1.275       .  A
C496        C885   1.479       .  S
C497        C878   1.485       .  S
H498        O499   0.966       .  S
O499       Ni507   1.903       .  S
O499       Ni501   1.902       .  S
O499       Ni506   1.886       .  S
O500       Ni501   1.937       .  S
Ni501       O505   1.923       .  S
Ni501       O503   1.937       .  S
O502       Ni507   1.938       .  S
C504        O505   1.274       .  A
C504        C910   1.485       .  S
O509       Ni515   1.940       .  S
O509        C530   1.274       .  A
O510       Ni533   1.930       .  S
O510        C519   1.272       .  A
O511       Ni515   1.892       .  S
O511       Ni533   1.906       .  S
O511       Ni527   1.903       .  S
O511        H534   0.966       .  S
C512        O529   1.275       .  A
C512        O521   1.275       .  A
C512        C882   1.469       .  S
O513       Ni532   1.929       .  S
O513        C519   1.270       .  A
O514       Ni532   1.900       .  S
O514        C516   1.265       .  A
Ni515       O518   1.927       .  S
Ni515       O520   1.899       .  S
C516        O526   1.271       .  A
C516        C861   1.472       .  S
O517       Ni533   1.920       .  S
O517        C523   1.279       .  A
O518        C523   1.281       .  A
C519        C854   1.482       .  S
O520        C522   1.266       .  A
C522        O528   1.278       .  A
C522        C865   1.480       .  S
C523        C886   1.473       .  S
H524        O525   0.966       .  S
O525       Ni533   1.912       .  S
O525       Ni527   1.899       .  S
O525       Ni532   1.897       .  S
O526       Ni527   1.925       .  S
Ni527       O531   1.903       .  S
O528       Ni533   1.946       .  S
C530        O531   1.263       .  A
C530        C857   1.473       .  S
O535       Ni541   1.936       .  S
O535        C556   1.273       .  A
O536       Ni559   1.919       .  S
O536        C545   1.269       .  A
O537       Ni541   1.892       .  S
O537       Ni559   1.906       .  S
O537       Ni553   1.917       .  S
O537        H560   0.966       .  S
C538        C849   1.486       .  S
O539       Ni558   1.919       .  S
O539        C545   1.265       .  A
O540       Ni558   1.885       .  S
O540        C542   1.264       .  A
Ni541       O544   1.928       .  S
Ni541       O546   1.893       .  S
C542        O552   1.271       .  A
C542       C1818   1.475   1_455  S
O543       Ni559   1.924       .  S
O543        C549   1.276       .  A
O544        C549   1.281       .  A
C545        C841   1.460       .  S
O546        C548   1.268       .  A
O547       Ni558   1.931       .  S
C548        O554   1.276       .  A
C548        C902   1.481       .  S
C549        C846   1.482       .  S
H550        O551   0.966       .  S
O551       Ni559   1.910       .  S
O551       Ni553   1.896       .  S
O551       Ni558   1.892       .  S
O552       Ni553   1.936       .  S
Ni553       O557   1.906       .  S
Ni553       O555   1.917       .  S
O554       Ni559   1.938       .  S
C556        O557   1.267       .  A
C556        C858   1.477       .  S
O561       Ni567   1.925       .  S
O561        C582   1.269       .  A
O562       Ni585   1.942       .  S
O562        C571   1.278       .  A
O563       Ni567   1.890       .  S
O563       Ni585   1.906       .  S
O563       Ni579   1.907       .  S
O563        H586   0.966       .  S
C564        O581   1.276       .  A
C564        O573   1.279       .  A
C564        C898   1.474       .  S
O565       Ni584   1.923       .  S
O565        C571   1.271       .  A
O566       Ni584   1.902       .  S
O566        C568   1.269       .  A
Ni567       O570   1.914       .  S
Ni567       O572   1.903       .  S
C568        O578   1.279       .  A
C568        C850   1.479       .  S
O569       Ni585   1.945       .  S
O569        C575   1.285       .  A
O570        C575   1.276       .  A
C571        C834   1.485       .  S
O572        C574   1.268       .  A
O573      Ni1496   1.932       .  S
C574        O580   1.276       .  A
C574        C845   1.476       .  S
C575        C893   1.480       .  S
H576        O577   0.966       .  S
O577       Ni585   1.924       .  S
O577       Ni579   1.919       .  S
O577       Ni584   1.898       .  S
O578       Ni579   1.953       .  S
Ni579       O583   1.918       .  S
Ni579      O1493   1.910   1_455  S
O580       Ni585   1.938       .  S
O581      Ni1491   1.915       .  S
C582        O583   1.271       .  A
C582        C837   1.478       .  S
Ni584      O1485   1.921       .  S
O587       Ni593   1.953       .  S
O587        C608   1.276       .  A
O588       Ni611   1.937       .  S
O588        C597   1.275       .  A
O589       Ni593   1.899       .  S
O589       Ni611   1.916       .  S
O589       Ni605   1.913       .  S
O589        H612   0.966       .  S
C590        O607   1.277   1_455  A
C590        O599   1.280   1_455  A
C590        C862   1.474       .  S
O591       Ni610   1.924       .  S
O591        C597   1.268       .  A
O592       Ni610   1.907       .  S
O592        C594   1.268       .  A
Ni593       O596   1.942       .  S
Ni593       O598   1.891       .  S
C594        O604   1.263       .  A
O595       Ni611   1.911       .  S
O595        C601   1.273       .  A
O596        C601   1.283       .  A
C597        C830   1.481       .  S
O598        C600   1.266       .  A
O599      Ni1522   1.919       .  S
C600        O606   1.283       .  A
C600        C877   1.478       .  S
C601        C866   1.484       .  S
H602        O603   0.966       .  S
O603       Ni611   1.903       .  S
O603       Ni605   1.907       .  S
O603       Ni610   1.901       .  S
O604       Ni605   1.915       .  S
Ni605       O609   1.898       .  S
Ni605      O1519   1.922       .  S
O606       Ni611   1.954       .  S
O607      Ni1517   1.922       .  S
C608        O609   1.261       .  A
C608        C838   1.478       .  S
Ni610      O1511   1.920       .  S
O613       Ni619   1.917       .  S
O613        C634   1.264       .  A
O614       Ni637   1.934       .  S
O614        C623   1.275       .  A
O615       Ni619   1.889       .  S
O615       Ni637   1.905       .  S
O615       Ni631   1.901       .  S
O615        H638   0.966       .  S
C616        O633   1.269       .  A
C616        O625   1.281       .  A
C616        C818   1.477       .  S
O617       Ni636   1.933       .  S
O617        C623   1.274       .  A
O618       Ni636   1.900       .  S
O618        C620   1.270       .  A
Ni619       O622   1.912       .  S
Ni619       O624   1.901       .  S
C620        O630   1.278       .  A
C620        C810   1.485       .  S
O621       Ni637   1.945       .  S
O621        C627   1.289       .  A
O622        C627   1.276       .  A
C623        C825   1.485       .  S
O624        C626   1.268       .  A
O625       Ni636   1.932       .  S
C626        O632   1.268       .  A
C627        C821   1.475       .  S
H628        O629   0.966       .  S
O629       Ni637   1.929       .  S
O629       Ni631   1.913       .  S
O629       Ni636   1.889       .  S
O630       Ni631   1.942       .  S
Ni631       O635   1.928       .  S
Ni631       O633   1.907       .  S
O632       Ni637   1.929       .  S
C634        O635   1.269       .  A
C634        C890   1.471       .  S
O639       Ni645   1.906       .  S
O639        C660   1.263       .  A
O640       Ni663   1.923       .  S
O640        C649   1.274       .  A
O641       Ni645   1.886       .  S
O641       Ni663   1.897       .  S
O641       Ni657   1.922       .  S
O641        H664   0.966       .  S
C642        O659   1.281       .  A
C642        O651   1.279       .  A
C642        C805   1.480       .  S
O643       Ni662   1.942       .  S
O643        C649   1.278       .  A
O644       Ni662   1.923       .  S
O644        C646   1.273       .  A
Ni645       O648   1.917       .  S
Ni645       O650   1.887       .  S
C646        O656   1.262       .  A
C646        C798   1.482       .  S
O647       Ni663   1.930       .  S
O647        C653   1.282       .  A
O648        C653   1.278       .  A
C649        C826   1.494       .  S
O650        C652   1.264       .  A
O651       Ni662   1.930       .  S
C652        O658   1.279       .  A
C652       C1706   1.474       .  S
C653        C801   1.474       .  S
H654        O655   0.966       .  S
O655       Ni663   1.915       .  S
O655       Ni657   1.912       .  S
O655       Ni662   1.904       .  S
O656       Ni657   1.910       .  S
Ni657       O661   1.927       .  S
Ni657       O659   1.923       .  S
O658       Ni663   1.951       .  S
C660        O661   1.264       .  A
C660        C870   1.476       .  S
O665       Ni671   1.907       .  S
O665        C686   1.267       .  A
O666       Ni689   1.901       .  S
O666        C675   1.262       .  A
O667       Ni671   1.917       .  S
O667       Ni689   1.923       .  S
O667       Ni683   1.952       .  S
O667        H690   0.966       .  S
C668        O685   1.288       .  A
C668        O677   1.276       .  A
C668        C797   1.477       .  S
O669       Ni688   1.941       .  S
O669        C675   1.275       .  A
O670       Ni688   1.928       .  S
O670        C672   1.274       .  A
Ni671       O676   1.901       .  S
C672        O682   1.269       .  A
C672        C789   1.494       .  S
O673        C679   1.266       .  A
O674        C679   1.282       .  A
C675        C781   1.479       .  S
O676        C678   1.272       .  A
O677       Ni688   1.913       .  S
C678        O684   1.283       .  A
C678        C786   1.488       .  S
C679        C793   1.488       .  S
H680        O681   0.966       .  S
O681       Ni689   1.880       .  S
O681       Ni683   1.903       .  S
O681       Ni688   1.906       .  S
O682       Ni683   1.929       .  S
Ni683       O687   1.933       .  S
Ni683       O685   1.944       .  S
O684       Ni689   1.961       .  S
C686        O687   1.274       .  A
C686        C853   1.475       .  S
O691       Ni697   1.939       .  S
O691        C712   1.277       .  A
O692       Ni715   1.910       .  S
O692        C701   1.272       .  A
O693       Ni697   1.883       .  S
O693       Ni715   1.890       .  S
O693       Ni709   1.889       .  S
O693        H716   0.967       .  S
C694        O711   1.267       .  A
C694        O703   1.280       .  A
C694        C774   1.482       .  S
O695       Ni714   1.927       .  S
O695        C701   1.273       .  A
O696       Ni714   1.898       .  S
O696        C698   1.267       .  A
Ni697       O700   1.925       .  S
Ni697       O702   1.922       .  S
C698        O708   1.279       .  A
C698        C817   1.470       .  S
O699       Ni715   1.943   1_545  S
C701        C782   1.470       .  S
O702        C704   1.272       .  A
O703       Ni714   1.942       .  S
C704        O710   1.265       .  A
C704       C1734   1.483   1_455  S
C705        C777   1.471       .  S
H706        O707   0.966       .  S
O707       Ni715   1.934       .  S
O707       Ni709   1.898       .  S
O707       Ni714   1.890       .  S
O708       Ni709   1.936       .  S
Ni709       O713   1.897       .  S
Ni709       O711   1.907       .  S
O710       Ni715   1.920       .  S
C712        O713   1.263       .  A
C712        C842   1.471       .  S
O717       Ni723   1.925       .  S
O717        C738   1.269       .  A
O718       Ni741   1.920       .  S
O718        C727   1.268       .  A
O719       Ni723   1.905       .  S
O719       Ni741   1.904       .  S
O719       Ni735   1.904       .  S
O719        H742   0.966       .  S
C720        O737   1.276       .  A
C720        O729   1.278       .  A
C720        C809   1.479       .  S
O721       Ni740   1.944       .  S
O721        C727   1.275       .  A
O722       Ni740   1.894       .  S
O722        C724   1.267       .  A
Ni723      O1638   1.925       .  S
Ni723       O728   1.917       .  S
C724        O734   1.283       .  A
C724        C773   1.477       .  S
O725      Ni1653   1.926       .  S
O725        C731   1.280       .  A
O726      Ni1635   1.922       .  S
O726        C731   1.279       .  A
C727        C770   1.493       .  S
O728        C730   1.270       .  A
O729       Ni740   1.930       .  S
C730        O736   1.265       .  A
C730        C778   1.479       .  S
C731        C814   1.470       .  S
H732        O733   0.966       .  S
O733       Ni741   1.927       .  S
O733       Ni735   1.927       .  S
O733       Ni740   1.898       .  S
O734       Ni735   1.949       .  S
Ni735       O739   1.944       .  S
Ni735       O737   1.923       .  S
O736       Ni741   1.919       .  S
C738        O739   1.275       .  A
C738        C833   1.494       .  S
Ni741      O1637   1.927       .  S
O743       Ni749   1.922       .  S
O743        C764   1.272       .  A
O744       Ni767   1.904       .  S
O744        C753   1.262       .  A
O745       Ni749   1.914       .  S
O745       Ni767   1.914       .  S
O745       Ni761   1.950       .  S
O745        H768   0.966       .  S
C746        O763   1.291       .  A
C746        O755   1.276       .  A
C746        C790   1.485       .  S
O747       Ni766   1.946       .  S
O747        C753   1.275       .  A
O748       Ni766   1.920       .  S
O748        C750   1.272       .  A
Ni749      O1664   1.945       .  S
Ni749       O754   1.898       .  S
C750        O760   1.266       .  A
C750        C806   1.479       .  S
O751      Ni1679   1.926   1_455  S
O751        C757   1.278       .  A
O752      Ni1661   1.933       .  S
O752        C757   1.279   1_655  A
C753        C769   1.482       .  S
O754        C756   1.270       .  A
O755       Ni766   1.912       .  S
C756        O762   1.283       .  A
C757        C785   1.482       .  S
H758        O759   0.966       .  S
O759       Ni767   1.882       .  S
O759       Ni761   1.906       .  S
O759       Ni766   1.906       .  S
O760       Ni761   1.914       .  S
Ni761       O765   1.934       .  S
Ni761       O763   1.961       .  S
O762       Ni767   1.957       .  S
C764        O765   1.276       .  A
C764        C829   1.483       .  S
Ni767      O1663   1.893       .  S
C769        H771   1.086       .  S
C769       C1682   1.341   1_554  D
C770        H772   1.086       .  S
C770       C1681   1.348   1_556  D
C773        H775   1.087       .  S
C773        C774   1.337       .  D
C774        H776   1.087       .  S
C777        H779   1.087       .  S
C777        C778   1.339       .  D
C778        H780   1.087       .  S
C781        H783   1.087   1_554  S
C782        H784   1.088   1_556  S
C785        H787   1.087       .  S
C785        C786   1.352       .  D
C786        H788   1.087       .  S
C789        H791   1.087       .  S
C789        C790   1.343       .  D
C790        H792   1.087       .  S
C793        H795   1.086       .  S
C793        C794   1.339       .  D
C794       C1564   1.482   1_455  S
C794        H796   1.088       .  S
C797        H799   1.088       .  S
C797        C798   1.337       .  D
C798        H800   1.087       .  S
C801        H803   1.087       .  S
C801        C802   1.344       .  D
C805        H807   1.087       .  S
C805        C806   1.343       .  D
C806        H808   1.087       .  S
C809        H811   1.087       .  S
C809        C810   1.351       .  D
C810        H812   1.086       .  S
C813        C814   1.347       .  D
C814        H816   1.087       .  S
C817        H819   1.087       .  S
C817        C818   1.337       .  D
C818        H820   1.087       .  S
C821        H823   1.087       .  S
C821        C822   1.339       .  D
C822       C1616   1.483       .  S
C822       H1736   1.087       .  S
H824       C1734   1.087       .  S
C825        H827   1.087       .  S
C825        C826   1.350   1_556  D
C826        H828   1.086       .  S
C829        H831   1.086       .  S
C829        C830   1.343       .  D
C830        H832   1.088       .  S
C833        H835   1.086       .  S
C833        C834   1.352       .  D
C834        H836   1.087       .  S
C837        H839   1.088   1_455  S
C837       C1750   1.340   1_455  D
C838        H840   1.087       .  S
C838       C1749   1.342       .  D
C841        H843   1.088       .  S
C841        C842   1.337       .  D
C842        H844   1.087       .  S
C845        H847   1.087       .  S
C845        C846   1.343       .  D
C846        H848   1.087       .  S
C849        H851   1.086       .  S
C849        C850   1.346       .  D
C850        H852   1.088       .  S
C853        H855   1.087       .  S
C853        C854   1.348       .  D
C854        H856   1.086       .  S
C857        H859   1.086       .  S
C858        H860   1.088       .  S
C861        H863   1.087       .  S
C861        C862   1.343       .  D
C862        H864   1.087       .  S
C865        H867   1.087       .  S
C865        C866   1.341       .  D
C866        H868   1.087       .  S
C869        H871   1.088       .  S
C869        C870   1.339       .  D
C870        H872   1.086       .  S
C873        C874   1.342       .  D
C874        H876   1.087       .  S
C877        H879   1.088       .  S
C877        C878   1.338       .  D
C878        H880   1.087       .  S
C881       C1402   1.477   1_455  S
C881        H883   1.086       .  S
C881        C882   1.348       .  D
C882        H884   1.088       .  S
C885        H887   1.086       .  S
C885        C886   1.348       .  D
C886        H888   1.087       .  S
C889        H891   1.086       .  S
C889        C890   1.342       .  D
C890        H892   1.088       .  S
C893        H895   1.087       .  S
C893        C894   1.342       .  D
C894        H896   1.087       .  S
C897        C898   1.351       .  D
C898        H900   1.087       .  S
C901        H903   1.087       .  S
C901        C902   1.350       .  D
C902        H904   1.086       .  S
C905        H907   1.087       .  S
C905        C906   1.347       .  D
C906       C1454   1.475       .  S
C906       H1820   1.087       .  S
H908       C1818   1.087       .  S
C909        H911   1.086       .  S
C909        C910   1.346       .  D
C910        H912   1.087       .  S
O913       Ni919   1.968       .  S
O913        C934   1.283       .  A
O914       Ni937   1.956       .  S
O914        C923   1.277       .  A
O915       Ni919   1.893       .  S
O915       Ni937   1.918       .  S
O915       Ni931   1.899       .  S
O915        H938   0.966       .  S
C916        O933   1.277       .  A
C916        O925   1.276       .  A
C916       C1361   1.471       .  S
O917       Ni936   1.910       .  S
O917        C923   1.262       .  A
O918       Ni936   1.899       .  S
O918        C920   1.267       .  A
Ni919       O922   1.938       .  S
Ni919       O924   1.923       .  S
C920        O930   1.269       .  A
C920       C1809   1.478       .  S
O921       Ni937   1.923       .  S
O921        C927   1.282       .  A
O922        C927   1.283       .  A
C923       C1345   1.483       .  S
O924        C926   1.275       .  A
O925       Ni936   1.916       .  S
C926        O932   1.274       .  A
C926       C1350   1.492       .  S
C927       C1357   1.478       .  S
H928        O929   0.966       .  S
O929       Ni937   1.915       .  S
O929       Ni931   1.902       .  S
O929       Ni936   1.890       .  S
O930       Ni931   1.929       .  S
Ni931       O935   1.906       .  S
Ni931       O933   1.924       .  S
O932       Ni937   1.934       .  S
C934        O935   1.266       .  A
C934       C1365   1.493       .  S
O939       Ni945   1.938       .  S
O939        C960   1.274       .  A
O940       Ni963   1.924       .  S
O940        C949   1.267       .  A
O941       Ni945   1.900       .  S
O941       Ni963   1.924       .  S
O941       Ni957   1.927       .  S
O941        H964   0.966       .  S
C942        O959   1.282       .  A
C942        O951   1.276       .  A
C942       C1330   1.467       .  S
O943       Ni962   1.913       .  S
O943        C949   1.261       .  A
O944       Ni962   1.889       .  S
O944        C946   1.265       .  A
Ni945       O948   1.941       .  S
Ni945       O950   1.891       .  S
C946        O956   1.276       .  A
O947       Ni963   1.901       .  S
O947        C953   1.268       .  A
O948        C953   1.281       .  A
C949       C1325   1.464       .  S
O950        C952   1.268       .  A
O951       Ni962   1.909       .  S
C952        O958   1.273       .  A
C952       C1341   1.476       .  S
C953       C1334   1.481       .  S
H954        O955   0.966       .  S
O955       Ni963   1.900       .  S
O955       Ni957   1.896       .  S
O955       Ni962   1.884       .  S
O956       Ni957   1.946       .  S
Ni957       O961   1.926       .  S
Ni957       O959   1.929       .  S
O958       Ni963   1.937       .  S
C960        O961   1.275       .  A
C960       C1366   1.492       .  S
O965       Ni971   1.936       .  S
O965        C986   1.274       .  A
O966       Ni989   1.924       .  S
O966        C975   1.271       .  A
O967       Ni971   1.890       .  S
O967       Ni989   1.906       .  S
O967       Ni983   1.906       .  S
O967        H990   0.966       .  S
C968        O985   1.281       .  A
C968        O977   1.279       .  A
C968       C1338   1.471       .  S
O969       Ni988   1.932       .  S
O969        C975   1.271       .  A
O970       Ni988   1.906       .  S
O970        C972   1.266       .  A
Ni971       O974   1.922       .  S
Ni971       O976   1.903       .  S
C972        O982   1.269       .  A
C972       C1317   1.473       .  S
O973       Ni989   1.920       .  S
O973        C979   1.278       .  A
O974        C979   1.278       .  A
C975       C1310   1.479       .  S
O976        C978   1.267       .  A
O977      Ni1444   1.925       .  S
C978        O984   1.279       .  A
C978       C1321   1.482       .  S
C979       C1342   1.469       .  S
H980        O981   0.966       .  S
O981       Ni989   1.907       .  S
O981       Ni983   1.905       .  S
O981       Ni988   1.900       .  S
O982       Ni983   1.921       .  S
Ni983       O987   1.906       .  S
Ni983      O1441   1.915   1_545  S
O984       Ni989   1.945       .  S
O985      Ni1439   1.924       .  S
C986        O987   1.264       .  A
C986       C1313   1.474       .  S
Ni988      O1433   1.929   1_545  S
O991       Ni997   1.938       .  S
O991       C1012   1.277       .  A
O992      Ni1015   1.931       .  S
O992       C1001   1.267       .  A
O993       Ni997   1.891       .  S
O993      Ni1015   1.905       .  S
O993      Ni1009   1.911       .  S
O993       H1016   0.966       .  S
C994       O1467   1.270   1_545  A
C994       O1459   1.276   1_545  A
C994       C1305   1.477       .  S
O995      Ni1014   1.905       .  S
O995       C1001   1.264       .  A
O996      Ni1014   1.899       .  S
O996        C998   1.265       .  A
Ni997      O1000   1.923       .  S
Ni997      O1002   1.911       .  S
C998       O1008   1.267       .  A
O999      Ni1015   1.914       .  S
O999       C1005   1.279       .  A
O1000      C1005   1.278       .  A
C1001      C1297   1.477       .  S
O1002      C1004   1.271       .  A
O1003     Ni1014   1.917       .  S
O1003      C1450   1.279       .  A
C1004      O1010   1.271       .  A
C1004      C1358   1.483       .  S
C1005      C1302   1.468       .  S
H1006      O1007   0.966       .  S
O1007     Ni1015   1.916       .  S
O1007     Ni1009   1.890       .  S
O1007     Ni1014   1.888       .  S
O1008     Ni1009   1.922       .  S
Ni1009     O1013   1.903       .  S
Ni1009     O1011   1.935       .  S
O1010     Ni1015   1.927       .  S
O1011      C1450   1.283       .  A
C1012      O1013   1.264       .  A
C1012      C1314   1.475       .  S
O1017     Ni1023   1.932       .  S
O1017      C1038   1.271       .  A
O1018     Ni1041   1.933       .  S
O1018      C1027   1.274       .  A
O1019     Ni1023   1.891       .  S
O1019     Ni1041   1.902       .  S
O1019     Ni1035   1.900       .  S
O1019      H1042   0.966       .  S
C1020      O1037   1.271       .  A
C1020      O1029   1.274       .  A
C1020      C1354   1.470       .  S
O1021     Ni1040   1.916       .  S
O1021      C1027   1.269       .  A
O1022     Ni1040   1.891       .  S
O1022      C1024   1.269       .  A
Ni1023     O1026   1.916       .  S
Ni1023     O1028   1.905       .  S
C1024      O1034   1.283       .  A
C1024      C1306   1.470       .  S
O1025     Ni1041   1.956       .  S
O1025      C1031   1.288       .  A
O1026      C1031   1.277       .  A
C1027      C1290   1.476       .  S
O1028      C1030   1.269       .  A
C1030      O1036   1.268       .  A
C1030      C1301   1.472       .  S
C1031      C1349   1.486       .  S
H1032      O1033   0.966       .  S
O1033     Ni1041   1.943       .  S
O1033     Ni1035   1.926       .  S
O1033     Ni1040   1.904       .  S
O1034     Ni1035   1.956       .  S
Ni1035     O1039   1.925       .  S
O1036     Ni1041   1.917       .  S
C1038      O1039   1.272       .  A
C1038      C1293   1.485       .  S
O1043     Ni1049   1.945       .  S
O1043      C1064   1.273       .  A
O1044     Ni1067   1.929       .  S
O1044      C1053   1.272       .  A
O1045     Ni1049   1.921       .  S
O1045     Ni1067   1.929       .  S
O1045     Ni1061   1.930       .  S
O1045      H1068   0.966       .  S
C1046      O1063   1.279       .  A
C1046      O1055   1.280       .  A
C1046      C1318   1.476       .  S
O1047     Ni1066   1.922       .  S
O1047      C1053   1.269       .  A
O1048     Ni1066   1.908       .  S
O1048      C1050   1.268   1_545  A
Ni1049     O1052   1.941       .  S
Ni1049     O1054   1.891       .  S
C1050      O1060   1.271   1_565  A
C1050      C1785   1.482       .  S
O1051     Ni1067   1.904       .  S
O1051      C1057   1.266       .  A
O1052      C1057   1.278       .  A
C1053      C1286   1.476       .  S
O1054      C1056   1.268       .  A
C1056      O1062   1.284       .  A
C1056      C1333   1.475       .  S
C1057      C1322   1.486       .  S
H1058      O1059   0.966       .  S
O1059     Ni1067   1.899       .  S
O1059     Ni1061   1.904       .  S
O1059     Ni1066   1.910       .  S
O1060     Ni1061   1.935       .  S
Ni1061     O1065   1.898       .  S
O1062     Ni1067   1.953       .  S
C1064      O1065   1.263       .  A
C1064      C1294   1.485       .  S
O1069     Ni1075   1.936       .  S
O1069      C1090   1.274       .  A
O1070     Ni1093   1.926       .  S
O1070      C1079   1.271       .  A
O1071     Ni1075   1.893       .  S
O1071     Ni1093   1.911       .  S
O1071     Ni1087   1.906       .  S
O1071      H1094   0.966       .  S
C1072      O1089   1.281       .  A
C1072      O1081   1.275       .  A
C1072      C1274   1.466       .  S
O1073     Ni1092   1.918       .  S
O1073      C1079   1.268       .  A
O1074     Ni1092   1.908       .  S
O1074      C1076   1.269       .  A
Ni1075     O1078   1.924       .  S
Ni1075     O1080   1.914       .  S
C1076      O1086   1.269       .  A
C1076      C1266   1.473       .  S
O1077     Ni1093   1.912       .  S
O1077      C1083   1.277       .  A
O1078      C1083   1.278       .  A
C1079      C1281   1.469       .  S
O1080      C1082   1.273       .  A
O1081     Ni1092   1.908       .  S
C1082      O1088   1.270       .  A
C1082      C1725   1.481       .  S
C1083      C1277   1.463       .  S
H1084      O1085   0.966       .  S
O1085     Ni1093   1.907       .  S
O1085     Ni1087   1.906       .  S
O1085     Ni1092   1.887       .  S
O1086     Ni1087   1.922       .  S
Ni1087     O1091   1.930       .  S
Ni1087     O1089   1.931       .  S
O1088     Ni1093   1.929       .  S
C1090      O1091   1.271       .  A
C1090      C1346   1.494       .  S
O1095     Ni1101   1.924       .  S
O1095      C1116   1.270       .  A
O1096     Ni1119   1.911       .  S
O1096      C1105   1.270       .  A
O1097     Ni1101   1.892       .  S
O1097     Ni1119   1.906       .  S
O1097     Ni1113   1.926       .  S
O1097      H1120   0.966       .  S
C1098      O1115   1.282       .  A
C1098      O1107   1.278       .  A
C1098      C1261   1.476       .  S
O1099     Ni1118   1.933       .  S
O1099      C1105   1.277       .  A
O1100     Ni1118   1.923       .  S
O1100      C1102   1.272       .  A
Ni1101     O1104   1.929       .  S
Ni1101     O1106   1.893       .  S
C1102      O1112   1.262       .  A
C1102      C1254   1.479       .  S
O1103     Ni1119   1.922       .  S
O1103      C1109   1.274       .  A
O1104      C1109   1.278       .  A
C1105      C1282   1.486       .  S
O1106      C1108   1.266       .  A
O1107     Ni1118   1.925       .  S
C1108      O1114   1.277       .  A
C1109      C1257   1.481       .  S
H1110      O1111   0.966       .  S
O1111     Ni1119   1.902       .  S
O1111     Ni1113   1.903       .  S
O1111     Ni1118   1.897       .  S
O1112     Ni1113   1.909       .  S
Ni1113     O1117   1.916       .  S
Ni1113     O1115   1.928       .  S
O1114     Ni1119   1.937       .  S
C1116      O1117   1.264       .  A
C1116      C1326   1.473       .  S
O1121     Ni1127   1.910       .  S
O1121      C1142   1.269       .  A
O1122     Ni1145   1.891       .  S
O1122      C1131   1.258       .  A
O1123     Ni1127   1.916       .  S
O1123     Ni1145   1.917       .  S
O1123     Ni1139   1.953       .  S
O1123      H1146   0.966       .  S
C1124      O1141   1.287       .  A
C1124      O1133   1.276       .  A
C1124      C1253   1.475       .  S
O1125     Ni1144   1.945       .  S
O1125      C1131   1.275       .  A
O1126     Ni1144   1.925       .  S
O1126      C1128   1.274       .  A
Ni1127     O1586   1.933   1_545  S
Ni1127     O1132   1.903       .  S
C1128      O1138   1.267       .  A
C1128      C1245   1.485       .  S
O1129     Ni1601   1.904       .  S
O1129      C1135   1.258       .  A
O1130     Ni1583   1.938       .  S
O1130      C1135   1.270       .  A
C1131      C1237   1.466   1_554  S
O1132      C1134   1.273       .  A
O1133     Ni1144   1.914       .  S
C1134      O1140   1.280       .  A
C1134      C1242   1.478       .  S
C1135      C1249   1.486       .  S
H1136      O1137   0.967       .  S
O1137     Ni1145   1.876       .  S
O1137     Ni1139   1.897       .  S
O1137     Ni1144   1.905       .  S
O1138     Ni1139   1.919       .  S
Ni1139     O1143   1.927       .  S
Ni1139     O1141   1.940       .  S
O1140     Ni1145   1.948       .  S
C1142      O1143   1.273       .  A
C1142      C1309   1.473       .  S
Ni1145     O1585   1.900   1_545  S
O1147     Ni1153   1.924       .  S
O1147      C1168   1.267       .  A
O1148     Ni1171   1.918       .  S
O1148      C1157   1.271       .  A
O1149     Ni1153   1.887       .  S
O1149     Ni1171   1.903       .  S
O1149     Ni1165   1.903       .  S
O1149      H1172   0.966       .  S
C1150      O1167   1.271       .  A
C1150      O1159   1.281       .  A
C1150      C1230   1.481       .  S
O1151     Ni1170   1.932       .  S
O1151      C1157   1.272       .  A
O1152     Ni1170   1.896       .  S
O1152      C1154   1.269       .  A
Ni1153     O1156   1.918       .  S
Ni1153     O1158   1.893       .  S
C1154      O1164   1.269       .  A
C1154      C1273   1.473       .  S
O1155     Ni1171   1.923       .  S
O1155      C1617   1.279       .  A
O1156      C1617   1.277       .  A
C1157      C1238   1.477       .  S
O1158      C1160   1.267       .  A
O1159     Ni1170   1.933       .  S
C1160      O1166   1.271       .  A
C1161      O1611   1.283       .  A
C1161      O1612   1.281   1_545  A
C1161      C1233   1.473       .  S
H1162      O1163   0.966       .  S
O1163     Ni1171   1.915       .  S
O1163     Ni1165   1.911       .  S
O1163     Ni1170   1.894       .  S
O1164     Ni1165   1.923       .  S
Ni1165     O1169   1.914       .  S
Ni1165     O1167   1.909       .  S
O1166     Ni1171   1.932       .  S
C1168      O1169   1.265       .  A
C1168      C1298   1.465       .  S
O1173     Ni1179   1.929       .  S
O1173      C1194   1.271       .  A
O1174     Ni1197   1.928       .  S
O1174      C1183   1.275       .  A
O1175     Ni1179   1.889       .  S
O1175     Ni1197   1.901       .  S
O1175     Ni1191   1.901       .  S
O1175      H1198   0.966       .  S
C1176      O1193   1.276       .  A
C1176      O1185   1.278       .  A
C1176      C1265   1.474       .  S
O1177     Ni1196   1.923       .  S
O1177      C1183   1.270       .  A
O1178     Ni1196   1.898       .  S
O1178      C1180   1.267       .  A
Ni1179     O1184   1.910       .  S
C1180      O1190   1.279       .  A
C1180      C1229   1.474       .  S
O1181      C1187   1.283       .  A
O1182      C1187   1.280   1_455  A
C1183      C1226   1.479       .  S
O1184      C1186   1.271       .  A
O1185     Ni1196   1.925       .  S
C1186      O1192   1.272       .  A
C1186      C1234   1.484       .  S
C1187      C1270   1.474       .  S
H1188      O1189   0.966       .  S
O1189     Ni1197   1.926       .  S
O1189     Ni1191   1.907       .  S
O1189     Ni1196   1.888       .  S
O1190     Ni1191   1.941       .  S
Ni1191     O1195   1.928       .  S
Ni1191     O1193   1.917       .  S
O1192     Ni1197   1.935       .  S
C1194      O1195   1.271       .  A
C1194      C1289   1.486       .  S
O1199     Ni1205   1.923       .  S
O1199      C1220   1.268       .  A
O1200     Ni1223   1.916       .  S
O1200      C1209   1.268       .  A
O1201     Ni1205   1.903       .  S
O1201     Ni1223   1.905       .  S
O1201     Ni1217   1.922       .  S
O1201      H1224   0.966       .  S
C1202      O1219   1.287       .  A
C1202      O1211   1.276       .  A
C1202      C1246   1.482       .  S
O1203     Ni1222   1.940       .  S
O1203      C1209   1.276       .  A
O1204     Ni1222   1.920       .  S
O1204      C1206   1.273       .  A
Ni1205     O1210   1.901       .  S
C1206      O1216   1.266       .  A
C1206      C1262   1.480       .  S
O1207      C1213   1.277       .  A
O1208      C1213   1.278       .  A
C1209      C1225   1.490       .  S
O1210      C1212   1.267       .  A
O1211     Ni1222   1.914       .  S
C1212      O1218   1.271       .  A
C1212      C1714   1.477   1_545  S
C1213      C1241   1.479       .  S
H1214      O1215   0.966       .  S
O1215     Ni1223   1.909       .  S
O1215     Ni1217   1.911       .  S
O1215     Ni1222   1.899       .  S
O1216     Ni1217   1.916       .  S
Ni1217     O1221   1.934       .  S
Ni1217     O1219   1.949       .  S
O1218     Ni1223   1.931       .  S
C1220      O1221   1.270       .  A
C1220      C1285   1.485       .  S
C1225      H1227   1.087   1_655  S
C1226      H1228   1.087   1_556  S
C1229      H1231   1.087       .  S
C1229      C1230   1.339       .  D
C1230      H1232   1.087       .  S
C1233      H1235   1.087       .  S
C1233      C1234   1.344       .  D
C1234      H1236   1.087       .  S
C1237      H1239   1.086       .  S
C1237      C1694   1.337   1_545  D
C1238      H1240   1.088       .  S
C1238      C1693   1.344   1_556  D
C1241      H1243   1.087       .  S
C1241      C1242   1.348       .  D
C1242      H1244   1.087       .  S
C1245      H1247   1.087       .  S
C1245      C1246   1.341       .  D
C1246      H1248   1.087       .  S
C1249      H1251   1.086       .  S
C1249      C1250   1.341       .  D
C1250      H1252   1.088       .  S
C1253      H1255   1.088       .  S
C1253      C1254   1.336       .  D
C1254      H1256   1.087       .  S
C1257      H1259   1.087       .  S
C1257      C1258   1.354       .  D
C1258      C1668   1.485       .  S
C1258      H1716   1.086       .  S
H1260      C1714   1.087       .  S
C1261      H1263   1.088       .  S
C1261      C1262   1.342       .  D
C1262      H1264   1.087       .  S
C1265      H1267   1.087       .  S
C1265      C1266   1.346       .  D
C1266      H1268   1.087       .  S
C1269      C1538   1.485   1_545  S
C1269      H1727   1.087       .  S
C1269      C1270   1.343       .  D
C1270      H1272   1.087       .  S
H1271      C1725   1.087       .  S
C1273      H1275   1.087       .  S
C1273      C1274   1.341       .  D
C1274      H1276   1.088       .  S
C1277      H1279   1.087       .  S
C1277      C1278   1.345       .  D
C1281      H1283   1.087       .  S
C1281      C1282   1.345   1_556  D
C1282      H1284   1.086       .  S
C1285      H1287   1.086       .  S
C1285      C1286   1.345       .  D
C1286      H1288   1.088       .  S
C1289      H1291   1.086       .  S
C1289      C1290   1.347       .  D
C1290      H1292   1.087       .  S
C1293      H1295   1.088       .  S
C1294      H1296   1.087       .  S
C1297      H1299   1.086       .  S
C1297      C1298   1.343       .  D
C1298      H1300   1.088       .  S
C1301      H1303   1.087       .  S
C1301      C1302   1.343       .  D
C1302      H1304   1.087       .  S
C1305      H1307   1.086       .  S
C1305      C1306   1.340       .  D
C1306      H1308   1.089       .  S
C1309      H1311   1.087       .  S
C1309      C1310   1.346       .  D
C1310      H1312   1.086       .  S
C1313      H1315   1.086   1_545  S
C1313      C1770   1.342   1_545  D
C1314      H1316   1.086       .  S
C1314      C1769   1.337       .  D
C1317      H1319   1.087       .  S
C1317      C1318   1.346       .  D
C1318      H1320   1.087       .  S
C1321      H1323   1.087       .  S
C1321      C1322   1.342       .  D
C1322      H1324   1.087       .  S
C1325      H1327   1.089       .  S
C1325      C1326   1.338       .  D
C1326      H1328   1.086       .  S
C1329      C1506   1.473       .  S
C1329      H1787   1.087       .  S
C1329      C1330   1.342       .  D
C1330      H1332   1.088       .  S
H1331      C1785   1.087       .  S
C1333      H1335   1.088       .  S
C1333      C1334   1.338       .  D
C1334      H1336   1.087       .  S
C1337      H1339   1.087       .  S
C1337      C1338   1.345       .  D
C1338      H1340   1.087       .  S
C1341      H1343   1.087       .  S
C1341      C1342   1.346       .  D
C1342      H1344   1.087       .  S
C1345      H1347   1.088       .  S
C1345      C1346   1.346       .  D
C1346      H1348   1.086       .  S
C1349      H1351   1.087       .  S
C1349      C1350   1.346       .  D
C1350      H1352   1.087       .  S
C1353      C1376   1.473   1_545  S
C1353      H1811   1.087       .  S
C1353      C1354   1.348       .  D
C1354      H1356   1.087       .  S
H1355      C1809   1.087       .  S
C1357      H1359   1.087       .  S
C1357      C1358   1.346       .  D
C1358      H1360   1.087       .  S
C1361      H1363   1.087       .  S
C1361      C1362   1.347       .  D
C1365      H1367   1.086       .  S
C1365      C1366   1.345       .  D
C1366      H1368   1.087       .  S
O1369     Ni1375   1.949       .  S
O1369      C1390   1.279       .  A
O1370     Ni1393   1.939       .  S
O1370      C1379   1.272       .  A
O1371     Ni1375   1.889       .  S
O1371     Ni1393   1.911       .  S
O1371     Ni1387   1.898       .  S
O1371      H1394   0.966       .  S
C1372      O1389   1.278       .  A
C1372      O1381   1.278       .  A
C1372      C1817   1.466       .  S
O1373     Ni1392   1.904       .  S
O1373      C1379   1.258       .  A
O1374     Ni1392   1.895       .  S
O1374      C1376   1.265       .  A
Ni1375     O1378   1.924       .  S
Ni1375     O1380   1.917       .  S
C1376      O1386   1.268       .  A
O1377     Ni1393   1.915       .  S
O1377      C1383   1.280       .  A
O1378      C1383   1.279       .  A
C1379      C1801   1.466       .  S
O1380      C1382   1.273       .  A
O1381     Ni1392   1.914       .  S
C1382      O1388   1.271       .  A
C1382      C1806   1.486       .  S
C1383      C1813   1.466       .  S
H1384      O1385   0.966       .  S
O1385     Ni1393   1.912       .  S
O1385     Ni1387   1.894       .  S
O1385     Ni1392   1.888       .  S
O1386     Ni1387   1.928       .  S
Ni1387     O1391   1.901       .  S
Ni1387     O1389   1.921       .  S
O1388     Ni1393   1.928       .  S
C1390      O1391   1.265       .  A
C1390      C1821   1.484       .  S
O1395     Ni1401   1.925       .  S
O1395      C1416   1.269       .  A
O1396     Ni1419   1.927       .  S
O1396      C1405   1.268       .  A
O1397     Ni1401   1.892       .  S
O1397     Ni1419   1.915       .  S
O1397     Ni1413   1.920       .  S
O1397      H1420   0.966       .  S
C1398      O1415   1.282       .  A
C1398      O1407   1.278       .  A
C1398      C1786   1.476       .  S
O1399     Ni1418   1.916       .  S
O1399      C1405   1.263       .  A
O1400     Ni1418   1.889       .  S
O1400      C1402   1.266       .  A
Ni1401     O1404   1.922       .  S
Ni1401     O1406   1.897       .  S
C1402      O1412   1.272       .  A
O1403     Ni1419   1.928       .  S
O1403      C1409   1.278       .  A
O1404      C1409   1.277       .  A
C1405      C1781   1.468       .  S
O1406      C1408   1.268       .  A
O1407     Ni1418   1.922       .  S
C1408      O1414   1.268       .  A
C1408      C1797   1.468       .  S
C1409      C1790   1.477       .  S
H1410      O1411   0.966       .  S
O1411     Ni1419   1.914       .  S
O1411     Ni1413   1.902       .  S
O1411     Ni1418   1.886       .  S
O1412     Ni1413   1.936       .  S
Ni1413     O1417   1.925       .  S
Ni1413     O1415   1.930       .  S
O1414     Ni1419   1.920       .  S
C1416      O1417   1.273       .  A
C1416      C1822   1.477       .  S
O1421     Ni1427   1.913       .  S
O1421      C1442   1.269       .  A
O1422     Ni1445   1.918       .  S
O1422      C1431   1.267       .  A
O1423     Ni1427   1.881       .  S
O1423     Ni1445   1.893       .  S
O1423     Ni1439   1.915       .  S
O1423      H1446   0.966       .  S
C1424      O1441   1.277       .  A
C1424      O1433   1.279       .  A
C1424      C1794   1.471       .  S
O1425     Ni1444   1.926       .  S
O1425      C1431   1.269       .  A
O1426     Ni1444   1.904       .  S
O1426      C1428   1.268       .  A
Ni1427     O1430   1.910       .  S
Ni1427     O1432   1.911       .  S
C1428      O1438   1.274       .  A
C1428      C1773   1.472       .  S
O1429     Ni1445   1.928       .  S
O1429      C1435   1.281       .  A
O1430      C1435   1.276       .  A
C1431      C1766   1.471       .  S
O1432      C1434   1.268       .  A
C1434      O1440   1.272       .  A
C1434      C1777   1.473       .  S
C1435      C1798   1.465       .  S
H1436      O1437   0.966       .  S
O1437     Ni1445   1.910       .  S
O1437     Ni1439   1.901       .  S
O1437     Ni1444   1.887       .  S
O1438     Ni1439   1.935       .  S
Ni1439     O1443   1.918       .  S
O1440     Ni1445   1.925       .  S
C1442      O1443   1.274       .  A
C1442      C1769   1.467       .  S
O1447     Ni1453   1.932       .  S
O1447      C1468   1.271       .  A
O1448     Ni1471   1.915       .  S
O1448      C1457   1.269       .  A
O1449     Ni1453   1.889       .  S
O1449     Ni1471   1.902       .  S
O1449     Ni1465   1.901       .  S
O1449      H1472   0.966       .  S
C1450      C1761   1.473       .  S
O1451     Ni1470   1.919       .  S
O1451      C1457   1.268       .  A
O1452     Ni1470   1.893       .  S
O1452      C1454   1.267       .  A
Ni1453     O1456   1.916       .  S
Ni1453     O1458   1.904       .  S
C1454      O1464   1.274       .  A
O1455     Ni1471   1.939       .  S
O1455      C1461   1.282       .  A
O1456      C1461   1.277       .  A
C1457      C1753   1.464       .  S
O1458      C1460   1.270       .  A
O1459     Ni1470   1.926       .  S
C1460      O1466   1.268       .  A
C1460      C1814   1.475       .  S
C1461      C1758   1.475       .  S
H1462      O1463   0.966       .  S
O1463     Ni1471   1.919       .  S
O1463     Ni1465   1.916       .  S
O1463     Ni1470   1.896       .  S
O1464     Ni1465   1.942       .  S
Ni1465     O1469   1.908       .  S
Ni1465     O1467   1.909       .  S
O1466     Ni1471   1.920       .  S
C1468      O1469   1.267       .  A
C1468      C1770   1.473       .  S
O1473     Ni1479   1.934       .  S
O1473      C1494   1.271       .  A
O1474     Ni1497   1.938       .  S
O1474      C1483   1.272       .  A
O1475     Ni1479   1.887       .  S
O1475     Ni1497   1.909       .  S
O1475     Ni1491   1.907       .  S
O1475      H1498   0.966       .  S
C1476      O1493   1.271       .  A
C1476      O1485   1.272   1_655  A
C1476      C1810   1.467       .  S
O1477     Ni1496   1.923       .  S
O1477      C1483   1.268       .  A
O1478     Ni1496   1.899       .  S
O1478      C1480   1.268       .  A
Ni1479     O1482   1.917       .  S
Ni1479     O1484   1.901       .  S
C1480      O1490   1.273       .  A
C1480      C1762   1.483       .  S
O1481     Ni1497   1.947       .  S
O1481      C1487   1.286       .  A
O1482      C1487   1.278       .  A
C1483      C1746   1.479       .  S
O1484      C1486   1.269       .  A
C1486      O1492   1.273       .  A
C1486      C1757   1.483       .  S
C1487      C1805   1.480       .  S
H1488      O1489   0.966       .  S
O1489     Ni1497   1.922       .  S
O1489     Ni1491   1.908       .  S
O1489     Ni1496   1.896       .  S
O1490     Ni1491   1.939       .  S
Ni1491     O1495   1.914       .  S
O1492     Ni1497   1.935       .  S
C1494      O1495   1.270       .  A
C1494      C1749   1.478       .  S
O1499     Ni1505   1.952       .  S
O1499      C1520   1.277       .  A
O1500     Ni1523   1.942       .  S
O1500      C1509   1.274       .  A
O1501     Ni1505   1.894       .  S
O1501     Ni1523   1.916       .  S
O1501     Ni1517   1.905       .  S
O1501      H1524   0.966       .  S
C1502      O1519   1.277       .  A
C1502      O1511   1.278       .  A
C1502      C1774   1.479       .  S
O1503     Ni1522   1.912       .  S
O1503      C1509   1.263       .  A
O1504     Ni1522   1.900       .  S
O1504      C1506   1.266       .  A
Ni1505     O1508   1.934       .  S
Ni1505     O1510   1.900       .  S
C1506      O1516   1.265       .  A
O1507     Ni1523   1.912       .  S
O1507      C1513   1.276       .  A
O1508      C1513   1.282       .  A
C1509      C1742   1.475       .  S
O1510      C1512   1.270       .  A
C1512      O1518   1.276       .  A
C1512      C1789   1.484       .  S
C1513      C1778   1.479       .  S
H1514      O1515   0.966       .  S
O1515     Ni1523   1.908       .  S
O1515     Ni1517   1.895       .  S
O1515     Ni1522   1.892       .  S
O1516     Ni1517   1.920       .  S
Ni1517     O1521   1.899       .  S
O1518     Ni1523   1.941       .  S
C1520      O1521   1.261       .  A
C1520      C1750   1.480       .  S
O1525     Ni1531   1.944       .  S
O1525      C1546   1.276       .  A
O1526     Ni1549   1.938       .  S
O1526      C1535   1.277       .  A
O1527     Ni1531   1.893       .  S
O1527     Ni1549   1.909       .  S
O1527     Ni1543   1.892       .  S
O1527      H1550   0.966       .  S
C1528      O1545   1.270       .  A
C1528      O1537   1.281       .  A
C1528      C1730   1.476       .  S
O1529     Ni1548   1.928       .  S
O1529      C1535   1.273       .  A
O1530     Ni1548   1.908       .  S
O1530      C1532   1.270       .  A
Ni1531     O1534   1.921       .  S
Ni1531     O1536   1.917       .  S
C1532      O1542   1.271       .  A
C1532      C1722   1.480       .  S
O1533     Ni1549   1.933       .  S
O1533      C1539   1.285       .  A
O1534      C1539   1.278       .  A
C1535      C1737   1.480       .  S
O1536      C1538   1.272       .  A
O1537     Ni1548   1.933       .  S
C1538      O1544   1.272       .  A
C1539      C1733   1.473       .  S
H1540      O1541   0.966       .  S
O1541     Ni1549   1.922       .  S
O1541     Ni1543   1.901       .  S
O1541     Ni1548   1.888       .  S
O1542     Ni1543   1.927       .  S
Ni1543     O1547   1.902       .  S
Ni1543     O1545   1.909       .  S
O1544     Ni1549   1.934       .  S
C1546      O1547   1.262       .  A
C1546      C1802   1.478       .  S
O1551     Ni1557   1.924       .  S
O1551      C1572   1.270       .  A
O1552     Ni1575   1.928       .  S
O1552      C1561   1.275       .  A
O1553     Ni1557   1.893       .  S
O1553     Ni1575   1.908       .  S
O1553     Ni1569   1.923       .  S
O1553      H1576   0.966       .  S
C1554      O1571   1.284       .  A
C1554      O1563   1.278       .  A
C1554      C1717   1.473       .  S
O1555     Ni1574   1.930       .  S
O1555      C1561   1.276       .  A
O1556     Ni1574   1.928       .  S
O1556      C1558   1.273       .  A
Ni1557     O1560   1.928       .  S
Ni1557     O1562   1.892       .  S
C1558      O1568   1.265       .  A
C1558      C1710   1.491       .  S
O1559     Ni1575   1.914       .  S
O1559      C1565   1.275       .  A
O1560      C1565   1.278       .  A
C1561      C1738   1.495       .  S
O1562      C1564   1.265       .  A
O1563     Ni1574   1.917       .  S
C1564      O1570   1.283       .  A
C1565      C1713   1.476       .  S
H1566      O1567   0.966       .  S
O1567     Ni1575   1.902       .  S
O1567     Ni1569   1.903       .  S
O1567     Ni1574   1.898       .  S
O1568     Ni1569   1.920       .  S
Ni1569     O1573   1.921       .  S
Ni1569     O1571   1.931       .  S
O1570     Ni1575   1.961       .  S
C1572      O1573   1.266       .  A
C1572      C1782   1.476       .  S
O1577     Ni1583   1.913       .  S
O1577      C1598   1.271       .  A
O1578     Ni1601   1.904       .  S
O1578      C1587   1.266       .  A
O1579     Ni1583   1.911       .  S
O1579     Ni1601   1.914       .  S
O1579     Ni1595   1.964       .  S
O1579      H1602   0.966       .  S
C1580      O1597   1.289       .  A
C1580      O1589   1.278       .  A
C1580      C1709   1.485       .  S
O1581     Ni1600   1.945       .  S
O1581      C1587   1.278       .  A
O1582     Ni1600   1.927       .  S
O1582      C1584   1.274       .  A
Ni1583     O1588   1.890       .  S
C1584      O1594   1.269       .  A
C1584      C1701   1.488       .  S
O1585      C1591   1.258       .  A
O1586      C1591   1.271       .  A
C1587      C1693   1.482       .  S
O1588      C1590   1.272       .  A
O1589     Ni1600   1.921       .  S
C1590      O1596   1.291       .  A
C1590      C1698   1.475       .  S
C1591      C1705   1.481       .  S
H1592      O1593   0.967       .  S
O1593     Ni1601   1.881       .  S
O1593     Ni1595   1.889       .  S
O1593     Ni1600   1.896       .  S
O1594     Ni1595   1.924       .  S
Ni1595     O1599   1.921       .  S
Ni1595     O1597   1.948       .  S
O1596     Ni1601   1.970       .  S
C1598      O1599   1.272       .  A
C1598      C1765   1.477       .  S
O1603     Ni1609   1.940       .  S
O1603      C1624   1.277       .  A
O1604     Ni1627   1.904       .  S
O1604      C1613   1.269       .  A
O1605     Ni1609   1.889       .  S
O1605     Ni1627   1.892       .  S
O1605     Ni1621   1.891       .  S
O1605      H1628   0.967       .  S
C1606      O1623   1.269       .  A
C1606      O1615   1.279       .  A
C1606      C1686   1.474       .  S
O1607     Ni1626   1.924       .  S
O1607      C1613   1.270       .  A
O1608     Ni1626   1.897       .  S
O1608      C1610   1.267       .  A
Ni1609     O1612   1.931       .  S
Ni1609     O1614   1.926       .  S
C1610      O1620   1.279       .  A
C1610      C1729   1.470       .  S
O1611     Ni1627   1.924   1_545  S
C1613      C1694   1.469       .  S
O1614      C1616   1.272       .  A
O1615     Ni1626   1.927       .  S
C1616      O1622   1.266       .  A
C1617      C1689   1.468       .  S
H1618      O1619   0.966       .  S
O1619     Ni1627   1.922       .  S
O1619     Ni1621   1.902       .  S
O1619     Ni1626   1.889       .  S
O1620     Ni1621   1.938       .  S
Ni1621     O1625   1.906       .  S
Ni1621     O1623   1.907       .  S
O1622     Ni1627   1.921       .  S
C1624      O1625   1.266       .  A
C1624      C1754   1.475       .  S
O1629     Ni1635   1.919       .  S
O1629      C1650   1.267       .  A
O1630     Ni1653   1.920       .  S
O1630      C1639   1.271       .  A
O1631     Ni1635   1.887       .  S
O1631     Ni1653   1.903       .  S
O1631     Ni1647   1.909       .  S
O1631      H1654   0.966       .  S
C1632      O1649   1.280       .  A
C1632      O1641   1.278       .  A
C1632      C1721   1.475       .  S
O1633     Ni1652   1.926       .  S
O1633      C1639   1.270       .  A
O1634     Ni1652   1.892       .  S
O1634      C1636   1.265       .  A
Ni1635     O1640   1.897       .  S
C1636      O1646   1.277       .  A
C1636      C1685   1.467       .  S
O1637      C1643   1.282   1_455  A
O1638      C1643   1.279   1_455  A
C1639      C1682   1.477       .  S
O1640      C1642   1.267       .  A
O1641     Ni1652   1.922       .  S
C1642      O1648   1.271       .  A
C1642      C1690   1.477       .  S
C1643      C1726   1.474       .  S
H1644      O1645   0.966       .  S
O1645     Ni1653   1.920       .  S
O1645     Ni1647   1.911       .  S
O1645     Ni1652   1.888       .  S
O1646     Ni1647   1.935       .  S
Ni1647     O1651   1.940       .  S
Ni1647     O1649   1.929       .  S
O1648     Ni1653   1.932       .  S
C1650      O1651   1.273       .  A
C1650      C1745   1.489       .  S
O1655     Ni1661   1.924       .  S
O1655      C1676   1.270       .  A
O1656     Ni1679   1.931       .  S
O1656      C1665   1.275       .  A
O1657     Ni1661   1.895       .  S
O1657     Ni1679   1.910       .  S
O1657     Ni1673   1.926       .  S
O1657      H1680   0.966       .  S
C1658      O1675   1.287       .  A
C1658      O1667   1.279       .  A
C1658      C1702   1.486       .  S
O1659     Ni1678   1.936       .  S
O1659      C1665   1.274       .  A
O1660     Ni1678   1.912       .  S
O1660      C1662   1.271       .  A
Ni1661     O1666   1.899       .  S
C1662      O1672   1.266       .  A
C1662      C1718   1.480       .  S
O1663      C1669   1.258       .  A
O1664      C1669   1.274       .  A
C1665      C1681   1.486   1_655  S
O1666      C1668   1.268       .  A
O1667     Ni1678   1.922       .  S
C1668      O1674   1.278       .  A
C1669      C1697   1.478       .  S
H1670      O1671   0.966       .  S
O1671     Ni1679   1.915       .  S
O1671     Ni1673   1.906       .  S
O1671     Ni1678   1.891       .  S
O1672     Ni1673   1.918       .  S
Ni1673     O1677   1.929       .  S
Ni1673     O1675   1.950       .  S
O1674     Ni1679   1.948       .  S
C1676      O1677   1.269       .  A
C1676      C1741   1.486       .  S
C1681      H1683   1.087       .  S
C1682      H1684   1.088   1_556  S
C1685      H1687   1.087       .  S
C1685      C1686   1.335       .  D
C1686      H1688   1.087       .  S
C1689      H1691   1.087       .  S
C1689      C1690   1.346       .  D
C1690      H1692   1.087       .  S
C1693      H1695   1.086   1_554  S
C1694      H1696   1.088   1_556  S
C1697      H1699   1.087       .  S
C1697      C1698   1.337       .  D
C1698      H1700   1.088       .  S
C1701      H1703   1.087       .  S
C1701      C1702   1.344       .  D
C1702      H1704   1.087       .  S
C1705      H1707   1.086       .  S
C1705      C1706   1.338       .  D
C1706      H1708   1.088       .  S
C1709      H1711   1.087       .  S
C1709      C1710   1.342       .  D
C1710      H1712   1.087       .  S
C1713      H1715   1.087       .  S
C1713      C1714   1.348       .  D
C1717      H1719   1.087       .  S
C1717      C1718   1.342       .  D
C1718      H1720   1.087       .  S
C1721      H1723   1.087       .  S
C1721      C1722   1.346       .  D
C1722      H1724   1.086       .  S
C1725      C1726   1.342       .  D
C1726      H1728   1.087       .  S
C1729      H1731   1.087       .  S
C1729      C1730   1.336       .  D
C1730      H1732   1.087       .  S
C1733      H1735   1.087       .  S
C1733      C1734   1.338       .  D
C1737      H1739   1.087       .  S
C1737      C1738   1.350   1_556  D
C1738      H1740   1.086       .  S
C1741      H1743   1.086       .  S
C1741      C1742   1.343       .  D
C1742      H1744   1.088       .  S
C1745      H1747   1.086       .  S
C1745      C1746   1.350       .  D
C1746      H1748   1.088       .  S
C1749      H1751   1.087       .  S
C1750      H1752   1.086       .  S
C1753      H1755   1.088       .  S
C1753      C1754   1.340       .  D
C1754      H1756   1.087       .  S
C1757      H1759   1.086       .  S
C1757      C1758   1.347       .  D
C1758      H1760   1.088       .  S
C1761      H1763   1.087       .  S
C1761      C1762   1.347       .  D
C1762      H1764   1.087       .  S
C1765      H1767   1.086       .  S
C1765      C1766   1.343       .  D
C1766      H1768   1.087       .  S
C1769      H1771   1.088       .  S
C1770      H1772   1.088       .  S
C1773      H1775   1.088       .  S
C1773      C1774   1.345       .  D
C1774      H1776   1.086       .  S
C1777      H1779   1.087       .  S
C1777      C1778   1.344       .  D
C1778      H1780   1.087       .  S
C1781      H1783   1.088       .  S
C1781      C1782   1.341       .  D
C1782      H1784   1.086       .  S
C1785      C1786   1.345       .  D
C1786      H1788   1.087       .  S
C1789      H1791   1.086       .  S
C1789      C1790   1.349       .  D
C1790      H1792   1.087       .  S
C1793      H1795   1.086       .  S
C1793      C1794   1.349       .  D
C1794      H1796   1.087       .  S
C1797      H1799   1.087       .  S
C1797      C1798   1.341       .  D
C1798      H1800   1.088       .  S
C1801      H1803   1.088       .  S
C1801      C1802   1.338       .  D
C1802      H1804   1.087       .  S
C1805      H1807   1.087       .  S
C1805      C1806   1.344       .  D
C1806      H1808   1.087       .  S
C1809      C1810   1.345       .  D
C1810      H1812   1.088       .  S
C1813      H1815   1.087       .  S
C1813      C1814   1.342       .  D
C1814      H1816   1.087       .  S
C1817      H1819   1.087       .  S
C1817      C1818   1.347       .  D
C1821      H1823   1.086       .  S
C1821      C1822   1.340       .  D
C1822      H1824   1.087       .  S
