geometry optimzed in LAMMPS
_audit_creation_date              2020-11-30 
_audit_creation_method            'lammps2cif' 
_symmetry_space_group_name_H-M    'P1' 
_symmetry_Int_Tables_number       1 
_symmetry_cell_setting            triclinic 
loop_ 
_symmetry_equiv_pos_as_xyz 
  x,y,z 
_cell_length_a                    28.13470695442288 
_cell_length_b                    28.18187838242304 
_cell_length_c                    37.641811866880346 
_cell_angle_alpha                 90.03508187974515 
_cell_angle_beta                  89.58908518855932 
_cell_angle_gamma                 89.92438691073875 
loop_ 
_atom_site_label 
_atom_site_type_symbol 
_atom_site_fract_x 
_atom_site_fract_y 
_atom_site_fract_z 
_atom_site_charge 
Fe1        Fe  0.99362360  0.70456565  0.57278263     1.65780
Fe2        Fe  0.05523744  0.63406261  0.62779079     1.73250
Fe3        Fe  0.04878390  0.75093528  0.64281924     1.54420
O4          O  0.04544207  0.79952833  0.60024655    -0.81900
O5          O  0.03095780  0.64423135  0.67792912    -0.80210
O6          O  0.03960507  0.75404947  0.55228327    -0.84410
O7          O  0.95486836  0.75686705  0.59876839    -0.79260
O8          O  0.11496116  0.74030650  0.62781989    -0.81040
O9          O  0.99006062  0.60157343  0.61854800    -0.83780
C10         C  0.95066936  0.77367097  0.63015868     0.96980
C11         C  0.05090660  0.79290305  0.56692593     1.04420
O12         O  0.03239550  0.69598062  0.61416963    -1.12770
O13         O  0.08033360  0.61975151  0.57812667    -0.75200
O14         O  0.02888410  0.65392471  0.54168977    -0.78680
O15         O  0.97901983  0.76313310  0.65518896    -0.79370
C16         C  0.06474309  0.62746957  0.54718349     0.95890
O17         O  0.94587497  0.65669084  0.59202144    -0.77330
O18         O  0.12244278  0.66307677  0.63969910    -0.82520
C19         C  0.05759863  0.66781391  0.69773224     0.98510
C20         C  0.13958127  0.70499813  0.63624297     1.04430
O21         O  0.06440118  0.71151233  0.69030951    -0.78170
C22         C  0.94993461  0.61802046  0.60895020     1.02730
Fe23       Fe  0.21339951  0.48136448  0.91970780     1.65780
Fe24       Fe  0.13876739  0.54820016  0.87111477     1.73250
Fe25       Fe  0.25690978  0.55198483  0.85649990     1.54420
O26         O  0.30461880  0.54430130  0.89858024    -0.81900
O27         O  0.14879852  0.53708265  0.81817744    -0.80210
O28         O  0.25797494  0.52808477  0.94443522    -0.84410
O29         O  0.26955905  0.45157805  0.89120854    -0.79260
O30         O  0.24071638  0.61350577  0.87844349    -0.81040
O31         O  0.11184436  0.47918427  0.87268741    -0.83780
C32         C  0.28902925  0.45470788  0.86054607     0.96980
C33         C  0.29581297  0.54581228  0.93173273     1.04420
O34         O  0.20233842  0.52613455  0.88198116    -1.12770
O35         O  0.12183846  0.56118628  0.92282036    -0.75200
O36         O  0.16017154  0.50645892  0.95386457    -0.78680
O37         O  0.27732906  0.48630332  0.83786300    -0.79370
C38         C  0.13083151  0.54061965  0.95180843     0.95890
O39         O  0.16892183  0.43382809  0.89604333    -0.77330
O40         O  0.16254335  0.61943345  0.86827095    -0.82520
C41         C  0.17466778  0.56469089  0.80040115     0.98510
C42         C  0.20332031  0.63736270  0.87507930     1.04430
O43         O  0.21719664  0.57300269  0.81045985    -0.78170
C44         C  0.12993961  0.43861963  0.87954941     1.02730
Fe45       Fe  0.48128626  0.75076041  0.57061707     1.65780
Fe46       Fe  0.41631003  0.82213880  0.62297701     1.73250
Fe47       Fe  0.42965138  0.70706090  0.64322103     1.54410
O48         O  0.43300934  0.65729155  0.60113043    -0.81900
O49         O  0.43910340  0.82001590  0.67372127    -0.80210
O50         O  0.43314213  0.70161266  0.55227379    -0.84410
O51         O  0.51989628  0.69843095  0.59604891    -0.79260
O52         O  0.36233317  0.71311868  0.63114790    -0.81040
O53         O  0.48119794  0.85550145  0.61153099    -0.83780
C54         C  0.52584973  0.68421570  0.62783203     0.96980
C55         C  0.42258285  0.66350070  0.56847425     1.04420
O56         O  0.44271163  0.76067653  0.61245515    -1.12770
O57         O  0.39041788  0.82959365  0.57309542    -0.75200
O58         O  0.44831048  0.80143276  0.53887419    -0.78680
O59         O  0.50002506  0.69816160  0.65360004    -0.79370
C60         C  0.40912237  0.82306972  0.54292812     0.95890
O61         O  0.52849383  0.79868164  0.58953732    -0.77330
O62         O  0.35055046  0.79103384  0.63657690    -0.82520
C63         C  0.41821088  0.79358987  0.69560190     0.98510
C64         C  0.33555710  0.74809178  0.63583761     1.04430
O65         O  0.41533731  0.74897992  0.68970005    -0.78170
C66         C  0.52250805  0.83838708  0.60481389     1.02730
Fe67       Fe  0.27024553  0.97154014  0.93232536     1.65780
Fe68       Fe  0.34840658  0.90368772  0.88628060     1.73250
Fe69       Fe  0.23207439  0.90955976  0.86160390     1.54410
O70         O  0.18021848  0.91187470  0.90192286    -0.81900
O71         O  0.34846826  0.90965401  0.83271228    -0.80210
O72         O  0.21869041  0.92694306  0.95216239    -0.84410
O73         O  0.22014246  0.00694165  0.90290568    -0.79260
O74         O  0.24275028  0.84284513  0.87629181    -0.81040
O75         O  0.37617340  0.97229355  0.88658109    -0.83780
C76         C  0.20436166  0.00879868  0.87140260     0.96980
C77         C  0.18282959  0.91102488  0.93569562     1.04420
O78         O  0.28413596  0.92841390  0.89311810    -1.12770
O79         O  0.36153952  0.89285436  0.93860111    -0.75200
O80         O  0.31647124  0.94241935  0.96932132    -0.78680
O81         O  0.21643304  0.97875380  0.84763335    -0.79370
C82         C  0.34842403  0.91087981  0.96762579     0.95890
O83         O  0.32055321  0.01763170  0.91279311    -0.77330
O84         O  0.32148342  0.83427474  0.88492091    -0.82520
C85         C  0.31975986  0.89279339  0.81073896     0.98510
C86         C  0.27896262  0.81827488  0.88317758     1.04430
O87         O  0.27490662  0.89496091  0.81597369    -0.78170
C88         C  0.35882507  0.01283062  0.89481608     1.02730
Fe89       Fe  0.71634964  0.47079066  0.56534689     1.65780
Fe90       Fe  0.63768457  0.40808914  0.61430206     1.73250
Fe91       Fe  0.75435929  0.41244500  0.63669336     1.54410
O92         O  0.80667334  0.41669679  0.59672036    -0.81900
O93         O  0.64033619  0.42179474  0.66717853    -0.80210
O94         O  0.76575052  0.42287526  0.54684104    -0.84410
O95         O  0.76688717  0.50675826  0.59414402    -0.79260
O96         O  0.74340828  0.34593113  0.62119718    -0.81040
O97         O  0.61024951  0.47598200  0.60909388    -0.83780
C98         C  0.78103242  0.51039209  0.62608877     0.96980
C99         C  0.80250623  0.40999282  0.56348381     1.04420
O100        O  0.70198133  0.43080031  0.60569576    -1.12770
O101        O  0.62515564  0.39095640  0.56255938    -0.75200
O102        O  0.66920180  0.44010326  0.53034315    -0.78680
O103        O  0.76817136  0.48164981  0.65046325    -0.79370
C104        C  0.63858855  0.40749119  0.53304348     0.95890
O105        O  0.66760527  0.51909012  0.58322205    -0.77330
O106        O  0.66352900  0.33925226  0.62074508    -0.82520
C107        C  0.66711160  0.40002366  0.68818654     0.98510
C108        C  0.70558316  0.32199857  0.61938232     1.04430
O109        O  0.71162275  0.39712722  0.68203080    -0.78170
C110        C  0.62862765  0.51569777  0.60027749     1.02730
Fe111      Fe  0.49261690  0.25552609  0.92268386     1.65780
Fe112      Fe  0.56422185  0.32816931  0.87607445     1.73250
Fe113      Fe  0.55410650  0.21202040  0.85297141     1.54410
O114        O  0.55150984  0.16302420  0.89520418    -0.81900
O115        O  0.55096385  0.32751939  0.82321949    -0.80210
O116        O  0.53713334  0.20568208  0.94408751    -0.84410
O117        O  0.45718089  0.20276210  0.89576797    -0.79260
O118        O  0.62167996  0.22059052  0.86546692    -0.81040
O119        O  0.49700117  0.36078621  0.88149479    -0.83780
C120        C  0.45590547  0.18511957  0.86475382     0.96980
C121        C  0.55264551  0.16838798  0.92890484     1.04420
O122        O  0.53684979  0.26565274  0.88350177    -1.12770
O123        O  0.58249708  0.33532586  0.92807536    -0.75200
O124        O  0.52147245  0.30503816  0.95761788    -0.78680
O125        O  0.48461082  0.19766594  0.84027650    -0.79370
C126        C  0.56083649  0.32671326  0.95671808     0.95890
O127        O  0.44766446  0.30421677  0.90100759    -0.77330
O128        O  0.63264678  0.29928278  0.86899867    -0.82520
C129        C  0.56850423  0.29864751  0.80123760     0.98510
C130        C  0.64788984  0.25652759  0.86772579     1.04430
O131        O  0.56792339  0.25389217  0.80689794    -0.78170
C132        C  0.45504716  0.34408655  0.88626648     1.02730
Fe133      Fe  0.75667990  0.98834942  0.57427546     1.65780
Fe134      Fe  0.83130533  0.04753514  0.62768465     1.73250
Fe135      Fe  0.71376509  0.04512830  0.64562836     1.54420
O136        O  0.66454722  0.04288914  0.60381562    -0.81900
O137        O  0.82238845  0.02780115  0.67918610    -0.80210
O138        O  0.70918955  0.03744340  0.55509279    -0.84410
O139        O  0.70314150  0.95230963  0.60083614    -0.79260
O140        O  0.72605580  0.11119258  0.63186546    -0.81040
O141        O  0.85925469  0.98003421  0.62026210    -0.83780
C142        C  0.68676783  0.94840001  0.63238582     0.96980
C143        C  0.67119321  0.05006620  0.57074458     1.04420
O144        O  0.76790700  0.02686171  0.61577094    -1.12770
O145        O  0.84751952  0.06843590  0.57732522    -0.75200
O146        O  0.80820238  0.01973961  0.54193621    -0.78680
O147        O  0.69887790  0.97584228  0.65766361    -0.79370
C148        C  0.83837887  0.05251350  0.54678177     0.95890
O149        O  0.80304356  0.93837329  0.59257181    -0.77330
O150        O  0.80569549  0.11679942  0.63605298    -0.82520
C151        C  0.79749766  0.05293899  0.69956670     0.98510
C152        C  0.76399344  0.13472206  0.63336831     1.04430
O153        O  0.75393410  0.06006080  0.69221672    -0.78170
C154        C  0.84149490  0.94079142  0.60990817     1.02730
Fe155      Fe  0.98648496  0.20275838  0.92202607     1.65780
Fe156      Fe  0.92569178  0.12716318  0.87010307     1.73250
Fe157      Fe  0.92274493  0.24437427  0.85361357     1.54420
O158        O  0.92733147  0.29496949  0.89431800    -0.81900
O159        O  0.94251078  0.13763250  0.81836276    -0.80210
O160        O  0.94068441  0.25236467  0.94266412    -0.84410
O161        O  0.02204552  0.25384476  0.89245733    -0.79260
O162        O  0.85809296  0.23044463  0.87204498    -0.81040
O163        O  0.99397921  0.09959757  0.87436244    -0.83780
C164        C  0.02223850  0.27083375  0.86096651     0.96980
C165        C  0.92552283  0.28964472  0.92783133     1.04420
O166        O  0.94541784  0.19094377  0.88209099    -1.12770
O167        O  0.90794563  0.11126779  0.92080313    -0.75200
O168        O  0.95296975  0.15478338  0.95634192    -0.78680
O169        O  0.99086242  0.26052905  0.83782815    -0.79370
C170        C  0.91962023  0.12519528  0.95137464     0.95890
O171        O  0.03535381  0.15418501  0.90374154    -0.77330
O172        O  0.85478825  0.15128031  0.86498735    -0.82520
C173        C  0.91366064  0.16029276  0.79975780     0.98510
C174        C  0.83558746  0.19181230  0.87125564     1.04430
O175        O  0.90474599  0.20330407  0.80788218    -0.78170
C176        C  0.03317326  0.11629208  0.88552072     1.02730
Fe177      Fe  0.76261281  0.46491724  0.07250209     1.65780
Fe178      Fe  0.84145715  0.39676170  0.11372689     1.73250
Fe179      Fe  0.72848234  0.39441607  0.14177466     1.54420
O180        O  0.69007155  0.45710755  0.14584805    -0.81900
O181        O  0.81414691  0.33081856  0.09619422    -0.80210
O182        O  0.72039935  0.50658072  0.10520974    -0.84410
O183        O  0.70311641  0.42846948  0.05611180    -0.79260
O184        O  0.76849260  0.40740970  0.18766230    -0.81040
O185        O  0.86406918  0.41296399  0.06355629    -0.83780
C186        C  0.67958606  0.39353030  0.06820905     0.96980
C187        C  0.68913839  0.49591600  0.12852932     1.04420
O188        O  0.77693006  0.42088910  0.11032965    -1.12770
O189        O  0.86329903  0.46473889  0.12876247    -0.75200
O190        O  0.82162368  0.50546793  0.08791810    -0.78680
O191        O  0.68636332  0.37559686  0.09879019    -0.79370
C192        C  0.85261934  0.50366400  0.11281515     0.95890
O193        O  0.79930365  0.42528019  0.03374270    -0.77330
O194        O  0.83505654  0.37615923  0.16582301    -0.82520
C195        C  0.77816790  0.31157871  0.11149191     0.98510
C196        C  0.80829282  0.38616707  0.19184680     1.04430
O197        O  0.76094531  0.32958839  0.13949850    -0.78170
C198        C  0.84163688  0.41026281  0.03500664     1.02730
Fe199      Fe  0.98982491  0.24944402  0.42603564     1.65780
Fe200      Fe  0.91936388  0.33127032  0.39050840     1.73250
Fe201      Fe  0.91076985  0.21708339  0.36254461     1.54410
O202        O  0.97445670  0.18101507  0.35196616    -0.81900
O203        O  0.85309062  0.30809030  0.40923091    -0.80210
O204        O  0.02847942  0.21034555  0.38949289    -0.84410
O205        O  0.95696753  0.18893317  0.44319954    -0.79260
O206        O  0.91454503  0.25826563  0.31587304    -0.81040
O207        O  0.93939187  0.35030928  0.44099263    -0.83780
C208        C  0.92092013  0.16492157  0.43435400     0.96980
C209        C  0.01558928  0.18016535  0.36624700     1.04420
O210        O  0.94126807  0.26541228  0.39182237    -1.12770
O211        O  0.98619271  0.35194617  0.37250968    -0.75200
O212        O  0.02897550  0.30938414  0.41117421    -0.78680
O213        O  0.89899717  0.17226311  0.40549786    -0.79370
C214        C  0.02585552  0.34086509  0.38678417     0.95890
O215        O  0.95173153  0.28222001  0.46691251    -0.77330
O216        O  0.89508486  0.32775890  0.33968165    -0.82520
C217        C  0.82913932  0.27327116  0.39683902     0.98510
C218        C  0.89784855  0.30037773  0.31324172     1.04430
O219        O  0.84491456  0.24522466  0.37306424    -0.78170
C220        C  0.93586650  0.32411318  0.46780652     1.02730
Fe221      Fe  0.71434168  0.98005199  0.06425922     1.65780
Fe222      Fe  0.63277405  0.04559151  0.10340639     1.73250
Fe223      Fe  0.74499663  0.05125230  0.13366910     1.54410
O224        O  0.77914525  0.98641995  0.14209429    -0.81900
O225        O  0.65792940  0.11120153  0.08529465    -0.80210
O226        O  0.75463679  0.93878954  0.09804977    -0.84410
O227        O  0.77356383  0.01599515  0.04914356    -0.79260
O228        O  0.70068248  0.04404084  0.17901707    -0.81040
O229        O  0.61383683  0.02441815  0.05364735    -0.83780
C230        C  0.79832290  0.04958937  0.06143878     0.96980
C231        C  0.78157412  0.94775228  0.12433128     1.04420
O232        O  0.69822208  0.02399568  0.10168736    -1.12770
O233        O  0.61293901  0.97819554  0.12034827    -0.75200
O234        O  0.65475658  0.93968177  0.07814132    -0.78680
O235        O  0.79290650  0.06599870  0.09265436    -0.79370
C236        C  0.62360134  0.94020480  0.10321001     0.95890
O237        O  0.68049438  0.02121968  0.02518506    -0.77330
O238        O  0.63550580  0.07072553  0.15373344    -0.82520
C239        C  0.69265312  0.13384819  0.09927935     0.98510
C240        C  0.65979342  0.06387255  0.18111700     1.04430
O241        O  0.71710866  0.11759888  0.12490188    -0.78170
C242        C  0.63763102  0.03433741  0.02650258     1.02730
Fe243      Fe  0.49318221  0.20355871  0.42258329     1.65780
Fe244      Fe  0.56718602  0.12302074  0.38832749     1.73250
Fe245      Fe  0.56762003  0.23289538  0.35467158     1.54410
O246        O  0.50503862  0.27119682  0.34838839    -0.81900
O247        O  0.63145742  0.15433620  0.40558419    -0.80210
O248        O  0.45222719  0.24030660  0.38629736    -0.84410
O249        O  0.52660930  0.26573656  0.43614183    -0.79260
O250        O  0.55631888  0.18823626  0.31088343    -0.81040
O251        O  0.54993348  0.10516008  0.43959256    -0.83780
C252        C  0.56256656  0.28869779  0.42495358     0.96980
C253        C  0.46506930  0.27245321  0.36447170     1.04420
O254        O  0.54048859  0.18678252  0.38751334    -1.12770
O255        O  0.50080575  0.09696115  0.37304048    -0.75200
O256        O  0.45553825  0.14175553  0.40964164    -0.78680
O257        O  0.58422396  0.27859329  0.39607362    -0.79370
C258        C  0.46030426  0.10831424  0.38667879     0.95890
O259        O  0.53195633  0.17321487  0.46414122    -0.77330
O260        O  0.58973113  0.12546603  0.33630466    -0.82520
C261        C  0.65049377  0.18869219  0.38837639     0.98510
C262        C  0.57989378  0.14938840  0.30888551     1.04430
O263        O  0.63291791  0.20182548  0.35922446    -0.78170
C264        C  0.54924810  0.13187783  0.46625848     1.02730
Fe265      Fe  0.48498326  0.69934110  0.07304891     1.65780
Fe266      Fe  0.41306916  0.62328972  0.11152459     1.73250
Fe267      Fe  0.41894093  0.73257111  0.14503364     1.54420
O268        O  0.48470807  0.76661062  0.14863257    -0.81900
O269        O  0.34937623  0.65678651  0.09576817    -0.80210
O270        O  0.53084224  0.73036235  0.10835617    -0.84410
O271        O  0.45517880  0.76442705  0.06213047    -0.79260
O272        O  0.43009201  0.68630399  0.18837801    -0.81040
O273        O  0.43131650  0.60537298  0.06089568    -0.83780
C274        C  0.42199364  0.78993148  0.07511484     0.96980
C275        C  0.52253646  0.76443917  0.12973317     1.04420
O276        O  0.44101439  0.68569906  0.11091492    -1.12770
O277        O  0.47893147  0.59684551  0.12615344    -0.75200
O278        O  0.51981466  0.63483474  0.08322100    -0.78680
O279        O  0.40205569  0.78063666  0.10483636    -0.79370
C280        C  0.51771390  0.60525334  0.10914695     0.95890
O281        O  0.43927969  0.67238144  0.03369468    -0.77330
O282        O  0.39187714  0.62662762  0.16310763    -0.82520
C283        C  0.33198429  0.69159111  0.11368303     0.98510
C284        C  0.40599954  0.64773334  0.19059734     1.04430
O285        O  0.35179184  0.70500752  0.14202313    -0.78170
C286        C  0.42232317  0.63090086  0.03470961     1.02730
Fe287      Fe  0.26575601  0.47690107  0.42769151     1.65780
Fe288      Fe  0.34499085  0.55161479  0.39363276     1.73250
Fe289      Fe  0.23311521  0.55422093  0.36328840     1.54420
O290        O  0.19702733  0.49103686  0.35493788    -0.81900
O291        O  0.31543427  0.61537281  0.41323548    -0.80210
O292        O  0.22922954  0.43680817  0.39074344    -0.84410
O293        O  0.20347939  0.50774002  0.44339894    -0.79260
O294        O  0.27648803  0.54669121  0.31786628    -0.81040
O295        O  0.36404032  0.53110044  0.44391061    -0.83780
C296        C  0.18149762  0.54548886  0.43556962     0.96980
C297        C  0.19726085  0.44992186  0.36897589     1.04420
O298        O  0.28090652  0.52575237  0.39365817    -1.12770
O299        O  0.36967661  0.48594338  0.37520417    -0.75200
O300        O  0.32787925  0.44070309  0.41338432    -0.78680
O301        O  0.18865884  0.56773476  0.40661481    -0.79370
C302        C  0.35922627  0.44540724  0.38877274     0.95890
O303        O  0.29579899  0.51618231  0.46922293    -0.77330
O304        O  0.34077015  0.57729645  0.34300093    -0.82520
C305        C  0.28024950  0.63629360  0.39843495     0.98510
C306        C  0.31592967  0.56921005  0.31588463     1.04430
O307        O  0.26175291  0.62014328  0.37035259    -0.78170
C308        C  0.33724234  0.53332425  0.47061362     1.02730
Fe309      Fe  0.99093200  0.74804695  0.06883342     1.65780
Fe310      Fe  0.05901674  0.82685028  0.10986041     1.73250
Fe311      Fe  0.06545934  0.71042774  0.13415318     1.54420
O312        O  0.99988297  0.67946595  0.14591693    -0.81900
O313        O  0.12615893  0.80506822  0.09214891    -0.80210
O314        O  0.95168943  0.70410032  0.10221463    -0.84410
O315        O  0.02497315  0.68949321  0.04937530    -0.79260
O316        O  0.06659433  0.75022226  0.18197238    -0.81040
O317        O  0.04035007  0.84954632  0.06036585    -0.83780
C318        C  0.05451643  0.65958129  0.06103711     0.96980
C319        C  0.96146223  0.67633512  0.12803832     1.04420
O320        O  0.03733887  0.76104979  0.10544638    -1.12770
O321        O  0.99161441  0.84658319  0.12709038    -0.75200
O322        O  0.95023538  0.80627415  0.08624432    -0.78680
O323        O  0.07248057  0.66313227  0.09179185    -0.79370
C324        C  0.95260750  0.83696414  0.11137191     0.95890
O325        O  0.03035257  0.78498499  0.03005183    -0.77330
O326        O  0.08207762  0.82159782  0.16047984    -0.82520
C327        C  0.14913254  0.76794526  0.10172457     0.98510
C328        C  0.08121119  0.79280535  0.18590251     1.04430
O329        O  0.13180405  0.73514906  0.12113972    -0.78170
C330        C  0.04622821  0.82681425  0.03208467     1.02730
Fe331      Fe  0.21252024  0.97127267  0.42384063     1.65780
Fe332      Fe  0.13518702  0.90112473  0.38343281     1.73250
Fe333      Fe  0.25008178  0.89716256  0.35740989     1.54420
O334        O  0.28510085  0.96116279  0.34890816    -0.81900
O335        O  0.16123242  0.83697383  0.40387931    -0.80210
O336        O  0.25870952  0.01002940  0.39180406    -0.84410
O337        O  0.26885269  0.93427654  0.44370777    -0.79260
O338        O  0.21047315  0.90181256  0.31027961    -0.81040
O339        O  0.11022331  0.92124420  0.43226279    -0.83780
C340        C  0.29550167  0.90145684  0.43201931     0.96980
C341        C  0.28826238  0.99917804  0.36721099     1.04420
O342        O  0.19990953  0.92514081  0.38699039    -1.12770
O343        O  0.11383046  0.96773218  0.36540781    -0.75200
O344        O  0.15516551  0.01161554  0.40474059    -0.78680
O345        O  0.29374671  0.88547967  0.40053318    -0.79370
C346        C  0.12388904  0.00765646  0.38011704     0.95890
O347        O  0.17374838  0.93410028  0.46283152    -0.77330
O348        O  0.14259581  0.87536483  0.33289105    -0.82520
C349        C  0.19838367  0.81547106  0.39220211     0.98510
C350        C  0.17027051  0.88131369  0.30682862     1.04430
O351        O  0.22235850  0.83072678  0.36584585    -0.78170
C352        C  0.13190976  0.91820345  0.46105370     1.02730
C353        C  0.10031905  0.81201928  0.21984076    -0.05690
C354        C  0.13947668  0.79040181  0.23630194    -0.33120
C355        C  0.16556470  0.81455517  0.26264421     0.36130
C356        C  0.15308487  0.86124658  0.27281288    -0.06050
C357        C  0.11338244  0.88226944  0.25691007    -0.33020
C358        C  0.08767643  0.85855198  0.23045639     0.36030
H359        H  0.15082791  0.75536199  0.22793842     0.16400
O360        O  0.20186307  0.79137903  0.27949804    -0.60520
H361        H  0.10144718  0.91694930  0.26571761     0.16420
O362        O  0.04947792  0.88094466  0.21533447    -0.60610
H363        H  0.06328556  0.90429719  0.19848294     0.43410
H364        H  0.23098972  0.80003425  0.26602049     0.43370
C365        C  0.25926695  0.68104466  0.41161209    -0.05690
C366        C  0.20927632  0.68566427  0.41035318    -0.33120
C367        C  0.18744550  0.73020215  0.40860994     0.36130
C368        C  0.21578564  0.77087423  0.40787843    -0.06050
C369        C  0.26506480  0.76644412  0.41393735    -0.33020
C370        C  0.28691168  0.72184315  0.41587018     0.36030
H371        H  0.18717082  0.65473866  0.40703188     0.16400
O372        O  0.13954482  0.73313398  0.40248020    -0.60520
H373        H  0.28745580  0.79754024  0.41382015     0.16420
O374        O  0.33548629  0.71878733  0.41779022    -0.60610
H375        H  0.34701521  0.72150810  0.39291005     0.43410
H376        H  0.12454329  0.73335342  0.42639650     0.43370
C377        C  0.19922776  0.76125786  0.09240598    -0.05690
C378        C  0.23210017  0.78236906  0.11479777    -0.33120
C379        C  0.27577621  0.76065467  0.12098964     0.36130
C380        C  0.28808839  0.71750159  0.10350005    -0.06050
C381        C  0.25729718  0.69968435  0.07761450    -0.33020
C382        C  0.21279783  0.72109411  0.07231776     0.36030
H383        H  0.22186678  0.81282190  0.13074865     0.16400
O384        O  0.30542677  0.78143565  0.14526734    -0.60520
H385        H  0.26623274  0.66754286  0.06322627     0.16420
O386        O  0.18122015  0.70048663  0.04946821    -0.60610
H387        H  0.16455807  0.67619436  0.06384514     0.43410
H388        H  0.29245507  0.77247390  0.16890457     0.43370
C389        C  0.33493177  0.58976581  0.28257148    -0.05690
C390        C  0.34787988  0.56034693  0.25434248    -0.33120
C391        C  0.37438601  0.57829036  0.22565674     0.36130
C392        C  0.38817090  0.62690404  0.22453685    -0.06050
C393        C  0.37577857  0.65609983  0.25322402    -0.33020
C394        C  0.34962163  0.63787713  0.28205259     0.36030
H395        H  0.33896979  0.52295934  0.25508277     0.16400
O396        O  0.38756374  0.54759690  0.19899089    -0.60520
H397        H  0.38492897  0.69342422  0.25280642     0.16420
O398        O  0.33897371  0.66736833  0.31002430    -0.60610
H399        H  0.30649758  0.67937342  0.30523941     0.43410
H400        H  0.35815604  0.54143601  0.18535281     0.43370
C401        C  0.41626860  0.08219131  0.37603201    -0.05690
C402        C  0.41855966  0.03489638  0.36432598    -0.33120
C403        C  0.37687589  0.00865333  0.35802728     0.36130
C404        C  0.33150975  0.02952745  0.36330822    -0.06050
C405        C  0.32940336  0.07767392  0.37276073    -0.33020
C406        C  0.37095579  0.10398260  0.37866100     0.36030
H407        H  0.45269808  0.01734273  0.36181146     0.16400
O408        O  0.38105184  0.96126528  0.35028629    -0.60520
H409        H  0.29523006  0.09458805  0.37706049     0.16420
O410        O  0.36658976  0.15083736  0.38803292    -0.60610
H411        H  0.36980012  0.16871410  0.36545526     0.43410
H412        H  0.38397434  0.95969357  0.32404779     0.43370
C413        C  0.43487592  0.31596503  0.36149200    -0.05690
C414        C  0.38738003  0.31452111  0.37308535    -0.33120
C415        C  0.36193073  0.35631966  0.38017602     0.36130
C416        C  0.38392320  0.40126464  0.37641388    -0.06050
C417        C  0.43011503  0.40295792  0.36215556    -0.33020
C418        C  0.45552384  0.36100326  0.35469845     0.36030
H419        H  0.37043643  0.28070703  0.37832774     0.16400
O420        O  0.31584079  0.35255042  0.39196575    -0.60520
H421        H  0.44762647  0.43684151  0.35853720     0.16420
O422        O  0.50206846  0.36474617  0.34402700    -0.60610
H423        H  0.50101657  0.36617494  0.31772562     0.43410
H424        H  0.29612226  0.35504406  0.37030964     0.43370
C425        C  0.82169817  0.91422662  0.13088462    -0.05690
C426        C  0.86509488  0.93209280  0.14368483    -0.33120
C427        C  0.90783014  0.90673150  0.13906697     0.36130
C428        C  0.90781038  0.86232095  0.12163610    -0.06050
C429        C  0.86376439  0.84266323  0.11198750    -0.33020
C430        C  0.82120991  0.86788361  0.11663768     0.36030
H431        H  0.86673328  0.96759000  0.15466817     0.16400
O432        O  0.94957006  0.92710393  0.14982696    -0.60520
H433        H  0.86230820  0.80801978  0.09954883     0.16420
O434        O  0.77970166  0.84793841  0.10496513    -0.60610
H435        H  0.76478969  0.83377227  0.12641501     0.43410
H436        H  0.96026008  0.94683190  0.12947897     0.43370
C437        C  0.55471908  0.80632556  0.12775468    -0.05690
C438        C  0.58064012  0.81270587  0.09607647    -0.33120
C439        C  0.60222985  0.85582345  0.08783591     0.36130
C440        C  0.59960045  0.89435971  0.11182742    -0.06050
C441        C  0.57531416  0.88770689  0.14431807    -0.33020
C442        C  0.55290232  0.84422955  0.15231498     0.36030
H443        H  0.58180607  0.78503740  0.07608542     0.16400
O444        O  0.62317981  0.86057004  0.05498960    -0.60520
H445        H  0.57330735  0.91635981  0.16346451     0.16420
O446        O  0.52825907  0.83978022  0.18368104    -0.60610
H447        H  0.55108005  0.82525557  0.20044741     0.43410
H448        H  0.65488715  0.84546603  0.05716855     0.43370
C449        C  0.63879280  0.08322097  0.21483680    -0.05690
C450        C  0.66733357  0.09219235  0.24439852    -0.33120
C451        C  0.64869498  0.11574561  0.27432541     0.36130
C452        C  0.60068315  0.13115705  0.27524798    -0.06050
C453        C  0.57204456  0.12231389  0.24597184    -0.33020
C454        C  0.59035017  0.09842427  0.21614552     0.36030
H455        H  0.70441377  0.08179128  0.24411896     0.16400
O456        O  0.67780981  0.12335757  0.30284958    -0.60520
H457        H  0.53487038  0.13241613  0.24666006     0.16420
O458        O  0.55984576  0.08897201  0.18874872    -0.60610
H459        H  0.55660327  0.11935670  0.17568145     0.43410
H460        H  0.69080686  0.15572902  0.29936510     0.43370
C461        C  0.09861603  0.05205030  0.36918414    -0.05690
C462        C  0.12002172  0.09624547  0.37593557    -0.33120
C463        C  0.09529137  0.13894721  0.37107065     0.36130
C464        C  0.04760419  0.13857214  0.35961975    -0.06050
C465        C  0.02762753  0.09463332  0.34978345    -0.33020
C466        C  0.05268558  0.05176745  0.35433972     0.36030
H467        H  0.15581454  0.09781252  0.38630601     0.16400
O468        O  0.11728437  0.18068021  0.37984715    -0.60520
H469        H  0.99102931  0.09293138  0.34113455     0.16420
O470        O  0.03020230  0.00976165  0.34712448    -0.60610
H471        H  0.03655146  0.00368028  0.32157653     0.43410
H472        H  0.13332403  0.19124950  0.35769085     0.43370
C473        C  0.07042436  0.36565807  0.37567825    -0.05690
C474        C  0.06862566  0.41100707  0.36034585    -0.33120
C475        C  0.11035990  0.43722417  0.35427289     0.36130
C476        C  0.15527971  0.41832141  0.36375261    -0.06050
C477        C  0.15714592  0.37129657  0.37597897    -0.33020
C478        C  0.11553799  0.34504999  0.38171518     0.36030
H479        H  0.03461221  0.42737099  0.35480516     0.16400
O480        O  0.10611602  0.48292465  0.34220428    -0.60520
H481        H  0.19092288  0.35550398  0.38302821     0.16420
O482        O  0.11955159  0.29967358  0.39446369    -0.60610
H483        H  0.11853026  0.27912111  0.37310159     0.43410
H484        H  0.10779072  0.48042256  0.31594853     0.43370
C485        C  0.78022693  0.26348329  0.40830954    -0.05690
C486        C  0.77133608  0.22068506  0.42661205    -0.33120
C487        C  0.72779824  0.19670229  0.42292434     0.36130
C488        C  0.69302348  0.21542778  0.40025064    -0.06050
C489        C  0.70053875  0.26083413  0.38533483    -0.33020
C490        C  0.74335458  0.28489794  0.38952602     0.36030
H491        H  0.79986050  0.20364287  0.44100615     0.16400
O492        O  0.72128535  0.15373122  0.43931815    -0.60520
H493        H  0.67398235  0.27697861  0.36849271     0.16420
O494        O  0.75105144  0.32612923  0.37102755    -0.60610
H495        H  0.74204540  0.35188533  0.38773479     0.43410
H496        H  0.72848978  0.12956277  0.42088647     0.43370
C497        C  0.87705032  0.54911833  0.12268149    -0.05690
C498        C  0.92063398  0.54866636  0.14076317    -0.33120
C499        C  0.94646491  0.59081348  0.14637909     0.36130
C500        C  0.92901823  0.63485959  0.13379292    -0.06050
C501        C  0.88350744  0.63565977  0.11866683    -0.33020
C502        C  0.85777242  0.59372411  0.11302764     0.36030
H503        H  0.93603324  0.51524581  0.14905018     0.16400
O504        O  0.99067907  0.58764568  0.16127372    -0.60520
H505        H  0.86874277  0.66880186  0.10916486     0.16420
O506        O  0.81381003  0.59695408  0.09764967    -0.60610
H507        H  0.82011599  0.60123493  0.07188714     0.43410
H508        H  0.98522066  0.59162623  0.18715919     0.43370
C509        C  0.56225508  0.57988675  0.11903254    -0.05690
C510        C  0.56036765  0.53570322  0.13618971    -0.33120
C511        C  0.60202287  0.50965858  0.14273307     0.36130
C512        C  0.64692861  0.52769744  0.13213568    -0.06050
C513        C  0.64889566  0.57357051  0.11766444    -0.33020
C514        C  0.60735032  0.59946661  0.11104346     0.36030
H515        H  0.52632871  0.52018702  0.14310288     0.16400
O516        O  0.59777961  0.46489728  0.15665074    -0.60520
H517        H  0.68273930  0.58865874  0.10970336     0.16420
O518        O  0.61138974  0.64407391  0.09674748    -0.60610
H519        H  0.61729911  0.63901342  0.07101103     0.43410
H520        H  0.59917752  0.46928361  0.18276103     0.43370
C521        C  0.75354568  0.26859953  0.09827001    -0.05690
C522        C  0.70524986  0.26282578  0.10798784    -0.33120
C523        C  0.68147729  0.22015332  0.10251561     0.36130
C524        C  0.70605903  0.18170448  0.08788832    -0.06050
C525        C  0.75263893  0.18852219  0.07468251    -0.33020
C526        C  0.77643398  0.23186688  0.07959368     0.36030
H527        H  0.68627909  0.29062260  0.12199178     0.16400
O528        O  0.63650214  0.21442758  0.11613159    -0.60520
H529        H  0.77222059  0.15872721  0.06372672     0.16420
O530        O  0.82289287  0.23632898  0.06886348    -0.60610
H531        H  0.84193264  0.22267929  0.08844639     0.43410
H532        H  0.61494538  0.22179143  0.09614627     0.43370
C533        C  0.82467466  0.36757198  0.22640148    -0.05690
C534        C  0.81671447  0.31929570  0.23412051    -0.33120
C535        C  0.84285514  0.29559470  0.26053704     0.36130
C536        C  0.87785743  0.32003822  0.27981301    -0.06050
C537        C  0.88578627  0.36833028  0.27191441    -0.33020
C538        C  0.86008935  0.39175125  0.24529673     0.36030
H539        H  0.79118299  0.29941044  0.21867642     0.16150
O540        O  0.83236002  0.24925895  0.26837037    -0.60520
H541        H  0.91194578  0.38819555  0.28677679     0.16420
O542        O  0.87134134  0.43773574  0.23684569    -0.60610
H543        H  0.84926584  0.45752141  0.25121766     0.43410
H544        H  0.85317802  0.23016938  0.25249638     0.43370
C545        C  0.90652305  0.32772600  0.95097765    -0.05690
C546        C  0.93235343  0.34009074  0.98114892    -0.33120
C547        C  0.91299470  0.36986859  0.00710447     0.36130
C548        C  0.86576548  0.38708983  0.00398043    -0.06050
C549        C  0.84073753  0.37671809  0.97263381    -0.33020
C550        C  0.86103915  0.34764266  0.94605853     0.36030
H551        H  0.96752410  0.32536037  0.98517291     0.16400
O552        O  0.93998683  0.37944351  0.03645104    -0.60520
H553        H  0.80462622  0.38928078  0.96940253     0.16420
O554        O  0.83458174  0.33566401  0.91696136    -0.60610
H555        H  0.84193488  0.36032823  0.89897826     0.43410
H556        H  0.95741684  0.40900384  0.03055958     0.43370
C557        C  0.88986153  0.10798490  0.98128969    -0.05690
C558        C  0.90691013  0.10475718  0.01632493    -0.33120
C559        C  0.87740389  0.08720215  0.04378440     0.36130
C560        C  0.83084592  0.07241357  0.03593319    -0.06050
C561        C  0.81350897  0.07826881  0.00153063    -0.33020
C562        C  0.84206025  0.09578507  0.97452680     0.36030
H563        H  0.94310996  0.11493761  0.02222884     0.16400
O564        O  0.89497055  0.08260363  0.07747371    -0.60520
H565        H  0.77710167  0.06899942  0.99534794     0.16420
O566        O  0.82199556  0.10256024  0.94175107    -0.60610
H567        H  0.82048515  0.07057657  0.93078877     0.43410
H568        H  0.88791753  0.11330451  0.08928834     0.43370
C569        C  0.82262038  0.07895970  0.72869006    -0.05690
C570        C  0.86362591  0.05870527  0.74346459    -0.33120
C571        C  0.89414300  0.08497584  0.76535556     0.36130
C572        C  0.88506143  0.13357612  0.77265373    -0.06050
C573        C  0.84402644  0.15390597  0.75786300    -0.33020
C574        C  0.81302796  0.12717920  0.73627571     0.36030
H575        H  0.87270028  0.02216747  0.73746922     0.16400
O576        O  0.93329724  0.06257818  0.77900401    -0.60520
H577        H  0.83535123  0.19064315  0.76341502     0.16420
O578        O  0.77426018  0.14909057  0.72178353    -0.60610
H579        H  0.78748643  0.17375225  0.70576618     0.43410
H580        H  0.92141358  0.04483657  0.80001524     0.43370
C581        C  0.86326574  0.07455757  0.51610808    -0.05690
C582        C  0.84319963  0.07358806  0.48199350    -0.33120
C583        C  0.86278867  0.10069932  0.45418105     0.36130
C584        C  0.90312338  0.12927015  0.46032084    -0.06050
C585        C  0.92511094  0.12686756  0.49367878    -0.33020
C586        C  0.90562508  0.10028680  0.52129895     0.36030
H587        H  0.81112974  0.05341351  0.47719630     0.16400
O588        O  0.84216569  0.09900389  0.42131351    -0.60520
H589        H  0.95682849  0.14727141  0.49917496     0.16420
O590        O  0.92838905  0.10000482  0.55344010    -0.60610
H591        H  0.92010467  0.13072814  0.56480978     0.43410
H592        H  0.81528895  0.12167262  0.42252203     0.43370
C593        C  0.63359052  0.07257470  0.54946273    -0.05690
C594        C  0.63535681  0.12153494  0.54271408    -0.33120
C595        C  0.60487162  0.14241045  0.51774679     0.36130
C596        C  0.57210291  0.11410128  0.49908573    -0.06050
C597        C  0.56897076  0.06546418  0.50733489    -0.33020
C598        C  0.59916587  0.04478597  0.53244309     0.36030
H599        H  0.66205736  0.14319352  0.55551473     0.16400
O600        O  0.61002880  0.18963734  0.50978740    -0.60520
H601        H  0.54457661  0.04292877  0.49293156     0.16420
O602        O  0.59706256  0.99678344  0.53826586    -0.60610
H603        H  0.57742932  0.99301126  0.56006793     0.43410
H604        H  0.63437931  0.19081996  0.49061108     0.43370
C605        C  0.58506974  0.33955845  0.98976776    -0.05690
C606        C  0.62726806  0.31545023  0.99768109    -0.33120
C607        C  0.65693357  0.33117350  0.02490889     0.36130
C608        C  0.64450172  0.37181880  0.04450894    -0.06050
C609        C  0.60150077  0.39528779  0.03740586    -0.33020
C610        C  0.57167861  0.37927986  0.01012339     0.36030
H611        H  0.63837380  0.28549859  0.98153225     0.16400
O612        O  0.70024125  0.30970833  0.02983959    -0.60520
H613        H  0.59213124  0.42716516  0.05198668     0.16420
O614        O  0.53106424  0.40401496  0.00234249    -0.60610
H615        H  0.54107302  0.42865302  0.98504484     0.43410
H616        H  0.69343037  0.27555694  0.03362871     0.43370
C617        C  0.57216403  0.13009001  0.95155942    -0.05690
C618        C  0.61386902  0.10560051  0.94163657    -0.33120
C619        C  0.63564683  0.07334781  0.96513347     0.36130
C620        C  0.61477252  0.06404977  0.99860976    -0.06050
C621        C  0.57178615  0.08708429  0.00742536    -0.33020
C622        C  0.55107504  0.12012435  0.98467050     0.36030
H623        H  0.63073887  0.11301345  0.91627893     0.16400
O624        O  0.67715408  0.05137824  0.95515020    -0.60520
H625        H  0.55466160  0.08097283  0.03288096     0.16420
O626        O  0.50971851  0.14223354  0.99498154    -0.60610
H627        H  0.51962108  0.16774836  0.01151114     0.43410
H628        H  0.70237020  0.07539906  0.95883963     0.43370
C629        C  0.78473853  0.19790600  0.87465688    -0.05690
C630        C  0.76825599  0.22826517  0.90181451    -0.33120
C631        C  0.72492868  0.25181580  0.89856337     0.36130
C632        C  0.69792141  0.24490208  0.86793483    -0.06050
C633        C  0.71387060  0.21355497  0.84134806    -0.33020
C634        C  0.75663167  0.18949237  0.84485389     0.36030
H635        H  0.79042827  0.23572449  0.92458876     0.16400
O636        O  0.70844003  0.27973726  0.92586078    -0.60520
H637        H  0.69213804  0.20664675  0.81823235     0.16420
O638        O  0.77236328  0.16088158  0.81776490    -0.60610
H639        H  0.76237139  0.12837908  0.82454158     0.43410
H640        H  0.72138460  0.31181057  0.92099052     0.43370
C641        C  0.71334319  0.27172582  0.61901947    -0.05690
C642        C  0.74832831  0.25401882  0.59574105    -0.33120
C643        C  0.77005680  0.21073105  0.60239357     0.36130
C644        C  0.75601859  0.18490836  0.63232151    -0.06050
C645        C  0.72035512  0.20233987  0.65518255    -0.33020
C646        C  0.69878314  0.24545418  0.64855544     0.36030
H647        H  0.75989135  0.27476207  0.57319767     0.16400
O648        O  0.80236189  0.19260797  0.57849319    -0.60520
H649        H  0.70763462  0.18125023  0.67736363     0.16420
O650        O  0.66606708  0.26306442  0.67233119    -0.60610
H651        H  0.63483928  0.25186638  0.66363431     0.43410
H652        H  0.83378932  0.20361205  0.58692614     0.43370
C653        C  0.64401297  0.37271300  0.71752915    -0.05690
C654        C  0.60490633  0.34326395  0.70935678    -0.33120
C655        C  0.58149977  0.31634295  0.73568970     0.36130
C656        C  0.59579725  0.31986381  0.77118679    -0.06050
C657        C  0.63503700  0.34906645  0.77933785    -0.33020
C658        C  0.65960417  0.37454541  0.75281879     0.36030
H659        H  0.59262971  0.34083302  0.68219607     0.16400
O660        O  0.54341580  0.28865707  0.72670426    -0.60520
H661        H  0.64635695  0.35263070  0.80666073     0.16420
O662        O  0.69686585  0.40321856  0.76202740    -0.60610
H663        H  0.72521630  0.38228480  0.76152127     0.43410
H664        H  0.55718161  0.25718034  0.72081799     0.43370
C665        C  0.84084168  0.38601741  0.54359550    -0.05690
C666        C  0.83274507  0.34028632  0.53044920    -0.33120
C667        C  0.86634605  0.31770852  0.50864246     0.36130
C668        C  0.90806757  0.34179161  0.49846856    -0.06050
C669        C  0.91665394  0.38739945  0.51220649    -0.33020
C670        C  0.88380396  0.40908550  0.53537293     0.36030
H671        H  0.79939755  0.32275110  0.53595709     0.16400
O672        O  0.85662524  0.27341753  0.49536525    -0.60520
H673        H  0.94803657  0.40682981  0.50393655     0.16420
O674        O  0.89225883  0.45414930  0.54754004    -0.60610
H675        H  0.90669599  0.44987942  0.57128455     0.43410
H676        H  0.83113067  0.27826097  0.47769491     0.43370
C677        C  0.58060441  0.32727969  0.44779697    -0.05690
C678        C  0.62934849  0.33799238  0.44790816    -0.33120
C679        C  0.64851370  0.36699944  0.47438275     0.36130
C680        C  0.61861811  0.38610800  0.50089652    -0.06050
C681        C  0.56953262  0.37840386  0.49925115    -0.33020
C682        C  0.55033616  0.34984147  0.47270251     0.36030
H683        H  0.65314576  0.32144177  0.42897138     0.16400
O684        O  0.69680608  0.37347825  0.47567665    -0.60520
H685        H  0.54617983  0.39324840  0.51942304     0.16420
O686        O  0.50212752  0.34257377  0.47236546    -0.60610
H687        H  0.48985526  0.36445374  0.45393810     0.43410
H688        H  0.70910451  0.34632021  0.48964713     0.43370
C689        C  0.16577982  0.04338644  0.86548325    -0.05690
C690        C  0.12458414  0.02877342  0.84777068    -0.33120
C691        C  0.08116708  0.05241197  0.85334604     0.36130
C692        C  0.07863140  0.09159204  0.87682437    -0.06050
C693        C  0.12101097  0.10850274  0.89181660    -0.33020
C694        C  0.16408586  0.08506873  0.88619212     0.36030
H695        H  0.12504893  0.99666356  0.83192321     0.16400
O696        O  0.04147027  0.03623184  0.83624475    -0.60520
H697        H  0.12077518  0.13923021  0.90912485     0.16420
O698        O  0.20372946  0.10106631  0.90351686    -0.60610
H699        H  0.22154287  0.11988597  0.88561065     0.43410
H700        H  0.02930833  0.00984380  0.85115756     0.43370
C701        C  0.42566542  0.14305920  0.86076319    -0.05690
C702        C  0.44802560  0.09945744  0.85370532    -0.33120
C703        C  0.42684853  0.05656314  0.86413425     0.36130
C704        C  0.38239593  0.05691590  0.88187835    -0.06050
C705        C  0.35859448  0.10062365  0.88611462    -0.33020
C706        C  0.37985755  0.14321544  0.87581421     0.36030
H707        H  0.48393959  0.09880615  0.84309339     0.16400
O708        O  0.45146873  0.01506971  0.85898429    -0.60520
H709        H  0.32378260  0.10223259  0.89854374     0.16420
O710        O  0.35726852  0.18523025  0.88336677    -0.60610
H711        H  0.34095759  0.19419861  0.86108768     0.43410
H712        H  0.44372445  0.00498314  0.83445603     0.43370
C713        C  0.14266762  0.89163264  0.95676925    -0.05690
C714        C  0.12459720  0.84607480  0.94972925    -0.33120
C715        C  0.09091699  0.82498400  0.97268789     0.36130
C716        C  0.07434369  0.84984614  0.00296913    -0.06050
C717        C  0.09047331  0.89669565  0.00827112    -0.33020
C718        C  0.12439734  0.91724597  0.98580206     0.36030
H719        H  0.13844530  0.82583505  0.92745145     0.16400
O720        O  0.07693349  0.77916866  0.96645637    -0.60520
H721        H  0.07839723  0.91712235  0.03099879     0.16420
O722        O  0.14060497  0.96206374  0.99314633    -0.60610
H723        H  0.12120026  0.98352520  0.97821644     0.43410
H724        H  0.04872832  0.78187445  0.95094198     0.43370
C725        C  0.37054871  0.89190213  0.00013844    -0.05690
C726        C  0.34245582  0.88088542  0.02994290    -0.33120
C727        C  0.35991866  0.85076208  0.05657445     0.36130
C728        C  0.40581698  0.83077330  0.05324672    -0.06050
C729        C  0.43544924  0.84654284  0.02544157    -0.33020
C730        C  0.41827759  0.87679579  0.99918934     0.36030
H731        H  0.30577976  0.89257273  0.03128144     0.16400
O732        O  0.33035243  0.83815080  0.08396771    -0.60520
H733        H  0.47152423  0.83338958  0.02286674     0.16420
O734        O  0.44759861  0.88877938  0.97133530    -0.60610
H735        H  0.46121788  0.91999461  0.97788087     0.43410
H736        H  0.33515299  0.86277231  0.10242178     0.43370
C737        C  0.56562457  0.86447953  0.61614263    -0.05690
C738        C  0.56122292  0.90805787  0.63409495    -0.33120
C739        C  0.60159037  0.93341071  0.64440299     0.36130
C740        C  0.64715578  0.91540060  0.63662675    -0.06050
C741        C  0.65170949  0.87052477  0.62119242    -0.33020
C742        C  0.61168309  0.84503228  0.61094732     0.36030
H743        H  0.52650101  0.92338162  0.63915873     0.16400
O744        O  0.59613674  0.97806558  0.65836702    -0.60520
H745        H  0.68666395  0.85671646  0.61457890     0.16420
O746        O  0.61842140  0.80164307  0.59511636    -0.60610
H747        H  0.62421371  0.80863633  0.56962703     0.43410
H748        H  0.59649769  0.97356469  0.68448508     0.43370
C749        C  0.55717261  0.64357450  0.63199285    -0.05690
C750        C  0.60258532  0.64604823  0.61696548    -0.33120
C751        C  0.62652780  0.60483504  0.60688228     0.36130
C752        C  0.60468520  0.56000779  0.61159858    -0.06050
C753        C  0.56035856  0.55771816  0.62897130    -0.33020
C754        C  0.53670094  0.59909204  0.63926446     0.36030
H755        H  0.61810955  0.68025049  0.61068142     0.16400
O756        O  0.67082921  0.60913474  0.59181825    -0.60520
H757        H  0.54305256  0.52391902  0.63349386     0.16420
O758        O  0.49125531  0.59582334  0.65249725    -0.60610
H759        H  0.49483205  0.59535596  0.67867604     0.43410
H760        H  0.66512542  0.61592995  0.56635121     0.43370
C761        C  0.39102759  0.81710192  0.72503252    -0.05690
C762        C  0.39684666  0.80339268  0.76038559    -0.33120
C763        C  0.37384035  0.82837858  0.78796453     0.36130
C764        C  0.34140692  0.86567950  0.78056887    -0.06050
C765        C  0.33437901  0.87852550  0.74513775    -0.33020
C766        C  0.35957854  0.85532470  0.71758101     0.36030
H767        H  0.42101488  0.77475019  0.76681402     0.16400
O768        O  0.38367098  0.81623362  0.82241136    -0.60520
H769        H  0.31091458  0.90780423  0.73885955     0.16420
O770        O  0.35419191  0.87112700  0.68336617    -0.60610
H771        H  0.32068162  0.86434770  0.67717440     0.43410
H772        H  0.41381705  0.83270058  0.82805993     0.43370
C773        C  0.38236386  0.83998152  0.51201135    -0.05690
C774        C  0.33268979  0.83638451  0.51355875    -0.33120
C775        C  0.30473074  0.85505698  0.48672977     0.36130
C776        C  0.32621177  0.87803569  0.45773992    -0.06050
C777        C  0.37591553  0.88019165  0.45505117    -0.33020
C778        C  0.40421991  0.86116795  0.48217263     0.36030
H779        H  0.31530445  0.81948344  0.53601345     0.16400
O780        O  0.25614436  0.85191903  0.48948704    -0.60520
H781        H  0.39255796  0.89807549  0.43274020     0.16420
O782        O  0.45262799  0.86637192  0.48049012    -0.60610
H783        H  0.46412101  0.83911068  0.46613795     0.43410
H784        H  0.24807948  0.81983784  0.48055806     0.43370
C785        C  0.39820154  0.62554671  0.54846205    -0.05690
C786        C  0.35130355  0.63271644  0.53707383    -0.33120
C787        C  0.32922596  0.60011452  0.51424507     0.36130
C788        C  0.35441045  0.55996934  0.50197619    -0.06050
C789        C  0.40080929  0.55210240  0.51441022    -0.33020
C790        C  0.42237013  0.58408690  0.53796899     0.36030
H791        H  0.33229245  0.66454354  0.54496458     0.16400
O792        O  0.28427948  0.60947666  0.50212723    -0.60520
H793        H  0.42110871  0.52205256  0.50463274     0.16420
O794        O  0.46836940  0.57641280  0.54833599    -0.60610
H795        H  0.46581359  0.55980426  0.57148826     0.43410
H796        H  0.28837107  0.63398281  0.48346245     0.43370
C797        C  0.05605092  0.30949431  0.85437063    -0.05690
C798        C  0.03820895  0.35293951  0.84206513    -0.33120
C799        C  0.06216478  0.39542904  0.84914807     0.36130
C800        C  0.10525645  0.39462222  0.86819794    -0.06050
C801        C  0.12533021  0.35036317  0.87693271    -0.33020
C802        C  0.10092656  0.30819870  0.87048190     0.36030
H803        H  0.00337740  0.35456212  0.83000659     0.16400
O804        O  0.04214897  0.43740756  0.83844662    -0.60520
H805        H  0.15912547  0.34821605  0.89044912     0.16420
O806        O  0.12001671  0.26592288  0.88164367    -0.60610
H807        H  0.11617478  0.26576235  0.90786569     0.43410
H808        H  0.01884536  0.44574843  0.85734735     0.43370
C809        C  0.33113033  0.42450032  0.85504078    -0.05690
C810        C  0.32725121  0.37620217  0.86298752    -0.33120
C811        C  0.36726053  0.34951737  0.87212761     0.36130
C812        C  0.41266980  0.37122136  0.87386363    -0.06050
C813        C  0.41689925  0.41889619  0.86325813    -0.33020
C814        C  0.37659177  0.44545472  0.85390305     0.36030
H815        H  0.29246554  0.35978580  0.86449202     0.16400
O816        O  0.36115437  0.30231774  0.87982696    -0.60520
H817        H  0.45117026  0.43633967  0.86376967     0.16420
O818        O  0.38141289  0.49314985  0.84765665    -0.60610
H819        H  0.38449975  0.49607580  0.82149657     0.43410
H820        H  0.34936037  0.30144557  0.90471776     0.43370
C821        C  0.26830266  0.76848812  0.88586901    -0.05690
C822        C  0.23464993  0.75455136  0.91168285    -0.33120
C823        C  0.20721318  0.71383314  0.90668690     0.36130
C824        C  0.21284045  0.68757251  0.87532378    -0.06050
C825        C  0.24646590  0.70190352  0.84978753    -0.33020
C826        C  0.27445879  0.74148408  0.85508493     0.36030
H827        H  0.22821683  0.77656712  0.93486003     0.16400
O828        O  0.17719928  0.69860429  0.93317641    -0.60520
H829        H  0.25418140  0.67981093  0.82690848     0.16420
O830        O  0.30524634  0.75551405  0.82875927    -0.60610
H831        H  0.33332790  0.73447002  0.83114552     0.43410
H832        H  0.14622346  0.71389753  0.92809714     0.43370
C833        C  0.06917808  0.62027171  0.03690048    -0.05690
C834        C  0.11136467  0.59462767  0.04291168    -0.33120
C835        C  0.13040602  0.56465207  0.01653951     0.36130
C836        C  0.10676015  0.55956722  0.98388134    -0.06050
C837        C  0.06193384  0.58054244  0.97979627    -0.33020
C838        C  0.04315767  0.61065844  0.00573793     0.36030
H839        H  0.13117106  0.59988695  0.06714409     0.16400
O840        O  0.17415781  0.54439978  0.02164857    -0.60520
H841        H  0.04245390  0.57585534  0.95530130     0.16420
O842        O  0.99969117  0.63129888  0.99987073    -0.60610
H843        H  0.00583888  0.65731656  0.98269924     0.43410
H844        H  0.16750965  0.51337795  0.03304888     0.43370
C845        C  0.39031160  0.61106774  0.00732797    -0.05690
C846        C  0.39502004  0.62225621  0.97113436    -0.33120
C847        C  0.36550901  0.60049573  0.94576146     0.36130
C848        C  0.33002731  0.56790706  0.95667851    -0.06050
C849        C  0.32511686  0.55780569  0.99293942    -0.33020
C850        C  0.35469645  0.57858480  0.01794958     0.36030
H851        H  0.42200907  0.64714956  0.96246913     0.16400
O852        O  0.37069018  0.61252054  0.91066327    -0.60520
H853        H  0.29800747  0.53344046  0.00227371     0.16420
O854        O  0.34713183  0.56807768  0.05314984    -0.60610
H855        H  0.36212413  0.53659913  0.05683002     0.43410
H856        H  0.39547187  0.59074613  0.90123889     0.43370
C857        C  0.91610776  0.81209130  0.63468888    -0.05690
C858        C  0.87433722  0.81027835  0.61475582    -0.33120
C859        C  0.84907102  0.85152175  0.60710628     0.36130
C860        C  0.86582055  0.89592421  0.61927334    -0.06050
C861        C  0.90556107  0.89699828  0.64172921    -0.33020
C862        C  0.93051106  0.85548089  0.64963025     0.36030
H863        H  0.86308538  0.77710280  0.60290123     0.16400
O864        O  0.80980775  0.84803222  0.58587303    -0.60520
H865        H  0.91848079  0.93030978  0.65227440     0.16420
O866        O  0.97186151  0.85866535  0.66856426    -0.60610
H867        H  0.96227516  0.85371629  0.69368783     0.43410
H868        H  0.78304581  0.84098082  0.60232583     0.43370
C869        C  0.81916397  0.54492430  0.63188802    -0.05690
C870        C  0.86126137  0.52962167  0.64805488    -0.33120
C871        C  0.90435972  0.55300638  0.64125159     0.36130
C872        C  0.90545740  0.59253426  0.61816387    -0.06050
C873        C  0.86231680  0.60991961  0.60469564    -0.33020
C874        C  0.81963437  0.58675868  0.61155682     0.36030
H875        H  0.86159566  0.49713624  0.66344055     0.16400
O876        O  0.94504809  0.53632413  0.65676096    -0.60520
H877        H  0.86150636  0.64090770  0.58769239     0.16420
O878        O  0.77903191  0.60294705  0.59561423    -0.60610
H879        H  0.76548046  0.62650201  0.61244925     0.43410
H880        H  0.95635864  0.51036432  0.64102059     0.43370
C881        C  0.18934390  0.71508014  0.64242666    -0.05690
C882        C  0.22207558  0.67823165  0.64194835    -0.33120
C883        C  0.27013057  0.68840933  0.64157809     0.36130
C884        C  0.28560879  0.73649903  0.64096508    -0.06050
C885        C  0.25276681  0.77301458  0.64512667    -0.33020
C886        C  0.20485938  0.76262633  0.64678942     0.36030
H887        H  0.21060255  0.64159556  0.64033461     0.16400
O888        O  0.30138386  0.65093011  0.64147619    -0.60520
H889        H  0.26396914  0.80973087  0.64639786     0.16420
O890        O  0.17355017  0.79952783  0.65154814    -0.60610
H891        H  0.16620164  0.79977826  0.67735588     0.43410
H892        H  0.30297109  0.63996390  0.61644306     0.43370
C893        C  0.15130118  0.59099041  0.77049299    -0.05690
C894        C  0.11885674  0.56683251  0.74889814    -0.33120
C895        C  0.08810988  0.59118665  0.72587887     0.36130
C896        C  0.08766371  0.64163079  0.72449751    -0.06050
C897        C  0.12065798  0.66583458  0.74576745    -0.33020
C898        C  0.15206993  0.64111041  0.76840761     0.36030
H899        H  0.11662878  0.52849164  0.75035378     0.16400
O900        O  0.05843131  0.56479583  0.70494668    -0.60520
H901        H  0.12216915  0.70422414  0.74499106     0.16420
O902        O  0.18113922  0.66665889  0.79015446    -0.60610
H903        H  0.20632342  0.67945581  0.77429046     0.43410
H904        H  0.07755282  0.55670459  0.68353059     0.43370
C905        C  0.14879197  0.56485184  0.46297060    -0.05690
C906        C  0.11106066  0.59534880  0.45422393    -0.33120
C907        C  0.08187586  0.61504528  0.48099036     0.36130
C908        C  0.09088071  0.60488580  0.51712537    -0.06050
C909        C  0.12843761  0.57408402  0.52538624    -0.33020
C910        C  0.15710977  0.55446009  0.49908248     0.36030
H911        H  0.10433429  0.60411383  0.42669525     0.16400
O912        O  0.04590996  0.64525388  0.47152367    -0.60520
H913        H  0.13682971  0.56567540  0.55271582     0.16420
O914        O  0.19533310  0.52757818  0.50940012    -0.60610
H915        H  0.18223251  0.49561186  0.51446187     0.43410
H916        H  0.01808881  0.62449998  0.46724939     0.43370
C917        C  0.10814062  0.89334783  0.49155280    -0.05690
C918        C  0.13295930  0.88353119  0.52311899    -0.33120
C919        C  0.11350847  0.85320333  0.54923703     0.36130
C920        C  0.06907331  0.83142076  0.54372765    -0.06050
C921        C  0.04352223  0.84276484  0.51315966    -0.33020
C922        C  0.06202602  0.87376181  0.48762017     0.36030
H923        H  0.16834239  0.89766754  0.52692012     0.16400
O924        O  0.13990609  0.84204360  0.57854236    -0.60520
H925        H  0.00922192  0.82647025  0.50858020     0.16420
O926        O  0.03543185  0.88232531  0.45790108    -0.60610
H927        H  0.01625744  0.91087444  0.46372962     0.43410
H928        H  0.13089007  0.86601422  0.59667555     0.43370
loop_ 
_geom_bond_atom_site_label_1 
_geom_bond_atom_site_label_2 
_geom_bond_distance 
_geom_bond_site_symmetry_2 
_ccdc_geom_bond_type 
Fe1          O17   2.035       .  S
Fe1           O7   2.073       .  S
Fe1          O14   2.090   1_655  S
Fe1           O6   2.051   1_655  S
Fe1          O12   1.923   1_655  S
Fe2           O5   2.023       .  S
Fe2           O9   2.082   1_455  S
Fe2          O13   2.034       .  S
Fe2          O18   2.112       .  S
Fe2          O12   1.930       .  S
Fe3          O21   2.153       .  S
Fe3           O8   1.964       .  S
Fe3          O15   2.043   1_455  S
Fe3           O4   2.111       .  S
Fe3          O12   1.945       .  S
O4           C11   1.276       .  A
O5           C19   1.252       .  A
O6           C11   1.267       .  A
O7           C10   1.277       .  A
O8           C20   1.254       .  A
O9           C22   1.275       .  A
C10          O15   1.274       .  A
C10         C857   1.463       .  S
C11         C920   1.483       .  S
O13          C16   1.266       .  A
O14          C16   1.272       .  A
C16         C908   1.487       .  S
O17          C22   1.268       .  A
O18          C20   1.283       .  A
C19          O21   1.277       .  A
C19         C896   1.512       .  S
C20         C881   1.449       .  S
C22         C872   1.483       .  S
Fe23         O39   2.043       .  S
Fe23         O29   2.079       .  S
Fe23         O36   2.089       .  S
Fe23         O28   2.048       .  S
Fe23         O34   1.927       .  S
Fe24         O27   2.035       .  S
Fe24         O31   2.089       .  S
Fe24         O35   2.033       .  S
Fe24         O40   2.119       .  S
Fe24         O34   1.939       .  S
Fe25         O43   2.152       .  S
Fe25         O30   1.971       .  S
Fe25         O37   2.059       .  S
Fe25         O26   2.095       .  S
Fe25         O34   1.947       .  S
O26          C33   1.271       .  A
O27          C41   1.256       .  A
O28          C33   1.267       .  A
O29          C32   1.277       .  A
O30          C42   1.255       .  A
O31          C44   1.278       .  A
C32          O37   1.278       .  A
C32         C809   1.471       .  S
C33         C848   1.487       .  S
O35          C38   1.263       .  A
O36          C38   1.270       .  A
C38         C836   1.479       .  S
O39          C44   1.271       .  A
O40          C42   1.282       .  A
C41          O43   1.279       .  A
C41         C893   1.503       .  S
C42         C824   1.441       .  S
C44         C800   1.486       .  S
Fe45         O61   2.028       .  S
Fe45         O51   2.070       .  S
Fe45         O58   2.084       .  S
Fe45         O50   2.061       .  S
Fe45         O56   1.926       .  S
Fe46         O49   2.020       .  S
Fe46         O53   2.097       .  S
Fe46         O57   2.030       .  S
Fe46         O62   2.108       .  S
Fe46         O56   1.924       .  S
Fe47         O65   2.146       .  S
Fe47         O52   1.958       .  S
Fe47         O59   2.036       .  S
Fe47         O48   2.117       .  S
Fe47         O56   1.938       .  S
O48          C55   1.278       .  A
O49          C63   1.254       .  A
O50          C55   1.270       .  A
O51          C54   1.274       .  A
O52          C64   1.251       .  A
O53          C66   1.281       .  A
C54          O59   1.270       .  A
C54         C749   1.453       .  S
C55         C785   1.480       .  S
O57          C60   1.261       .  A
O58          C60   1.267       .  A
C60         C773   1.470       .  S
O61          C66   1.268       .  A
O62          C64   1.282       .  A
C63          O65   1.279       .  A
C63         C761   1.496       .  S
C64         C884   1.455       .  S
C66         C737   1.484       .  S
Fe67         O83   2.055   1_565  S
Fe67         O73   2.056   1_565  S
Fe67         O80   2.081       .  S
Fe67         O72   2.057       .  S
Fe67         O78   1.948       .  S
Fe68         O71   2.023       .  S
Fe68         O75   2.086       .  S
Fe68         O79   2.030       .  S
Fe68         O84   2.099       .  S
Fe68         O78   1.952       .  S
Fe69         O87   2.131       .  S
Fe69         O74   1.983       .  S
Fe69         O81   2.068       .  S
Fe69         O70   2.099       .  S
Fe69         O78   1.965       .  S
O70          C77   1.274       .  A
O71          C85   1.254       .  A
O72          C77   1.270       .  A
O73          C76   1.270       .  A
O74          C86   1.260       .  A
O75          C88   1.279   1_565  A
C76          O81   1.275   1_545  A
C76         C689   1.476       .  S
C77         C713   1.481       .  S
O79          C82   1.257       .  A
O80          C82   1.265       .  A
C82         C725   1.477   1_556  S
O83          C88   1.275       .  A
O84          C86   1.281       .  A
C85          O87   1.277       .  A
C85         C764   1.494       .  S
C86         C821   1.439       .  S
C88         C704   1.490       .  S
Fe89        O105   2.041       .  S
Fe89         O95   2.061       .  S
Fe89        O102   2.066       .  S
Fe89         O94   2.054       .  S
Fe89        O100   1.933       .  S
Fe90         O93   2.029       .  S
Fe90         O97   2.072       .  S
Fe90        O101   2.040       .  S
Fe90        O106   2.086       .  S
Fe90        O100   1.945       .  S
Fe91        O109   2.125       .  S
Fe91         O96   1.988       .  S
Fe91        O103   2.056       .  S
Fe91         O92   2.101       .  S
Fe91        O100   1.956       .  S
O92          C99   1.271       .  A
O93         C107   1.256       .  A
O94          C99   1.266       .  A
O95          C98   1.273       .  A
O96         C108   1.263       .  A
O97         C110   1.277       .  A
C98         O103   1.275       .  A
C98         C869   1.467       .  S
C99         C665   1.472       .  S
O101        C104   1.261       .  A
O102        C104   1.264       .  A
C104        C680   1.467       .  S
O105        C110   1.270       .  A
O106        C108   1.279       .  A
C107        O109   1.274       .  A
C107        C653   1.492       .  S
C108        C641   1.433       .  S
C110        C752   1.479       .  S
Fe111       O127   2.040       .  S
Fe111       O117   2.061       .  S
Fe111       O124   2.086       .  S
Fe111       O116   2.050       .  S
Fe111       O122   1.944       .  S
Fe112       O115   2.027       .  S
Fe112       O119   2.110       .  S
Fe112       O123   2.037       .  S
Fe112       O128   2.104       .  S
Fe112       O122   1.943       .  S
Fe113       O131   2.132       .  S
Fe113       O118   1.977       .  S
Fe113       O125   2.057       .  S
Fe113       O114   2.107       .  S
Fe113       O122   1.957       .  S
O114        C121   1.278       .  A
O115        C129   1.258       .  A
O116        C121   1.271       .  A
O117        C120   1.269       .  A
O118        C130   1.257       .  A
O119        C132   1.283       .  A
C120        O125   1.271       .  A
C120        C701   1.468       .  S
C121        C617   1.483       .  S
O123        C126   1.259       .  A
O124        C126   1.266       .  A
C126        C605   1.468       .  S
O127        C132   1.270       .  A
O128        C130   1.279       .  A
C129        O131   1.279       .  A
C129        C656   1.489       .  S
C130        C632   1.445       .  S
C132        C812   1.493       .  S
Fe133       O149   2.042       .  S
Fe133       O139   2.070       .  S
Fe133       O146   2.084   1_565  S
Fe133       O138   2.057   1_565  S
Fe133       O144   1.930   1_565  S
Fe134       O137   2.031       .  S
Fe134       O141   2.075   1_545  S
Fe134       O145   2.034       .  S
Fe134       O150   2.103       .  S
Fe134       O144   1.933       .  S
Fe135       O153   2.135       .  S
Fe135       O140   1.963       .  S
Fe135       O147   2.048   1_545  S
Fe135       O136   2.105       .  S
Fe135       O144   1.955       .  S
O136        C143   1.274       .  A
O137        C151   1.253       .  A
O138        C143   1.267       .  A
O139        C142   1.276       .  A
O140        C152   1.259       .  A
O141        C154   1.276       .  A
C142        O147   1.274       .  A
C142        C740   1.460       .  S
C143        C593   1.475       .  S
O145        C148   1.262       .  A
O146        C148   1.269       .  A
C148        C581   1.483       .  S
O149        C154   1.269       .  A
O150        C152   1.281       .  A
C151        O153   1.274       .  A
C151        C569   1.500       .  S
C152        C644   1.432       .  S
C154        C860   1.481       .  S
Fe155       O171   2.054   1_655  S
Fe155       O161   2.074   1_655  S
Fe155       O168   2.091       .  S
Fe155       O160   2.049       .  S
Fe155       O166   1.932       .  S
Fe156       O159   2.023       .  S
Fe156       O163   2.079       .  S
Fe156       O167   2.020       .  S
Fe156       O172   2.117       .  S
Fe156       O166   1.936       .  S
Fe157       O175   2.138       .  S
Fe157       O162   1.982       .  S
Fe157       O169   2.054       .  S
Fe157       O158   2.097       .  S
Fe157       O166   1.958       .  S
O158        C165   1.271       .  A
O159        C173   1.251       .  A
O160        C165   1.265       .  A
O161        C164   1.279       .  A
O162        C174   1.261       .  A
O163        C176   1.273   1_655  A
C164        O169   1.278   1_455  A
C164        C797   1.467       .  S
C165        C545   1.479       .  S
O167        C170   1.262       .  A
O168        C170   1.271       .  A
C170        C557   1.481       .  S
O171        C176   1.271       .  A
O172        C174   1.284       .  A
C173        O175   1.274       .  A
C173        C572   1.506       .  S
C174        C629   1.445       .  S
C176        C692   1.490       .  S
Fe177       O193   2.101       .  S
Fe177       O183   2.063       .  S
Fe177       O190   2.102       .  S
Fe177       O182   2.068       .  S
Fe177       O188   1.933       .  S
Fe178       O181   2.119       .  S
Fe178       O185   2.041       .  S
Fe178       O189   2.092       .  S
Fe178       O194   2.052       .  S
Fe178       O188   1.943       .  S
Fe179       O197   2.043       .  S
Fe179       O184   2.101       .  S
Fe179       O191   2.081       .  S
Fe179       O180   2.075       .  S
Fe179       O188   1.948       .  S
O180        C187   1.274       .  A
O181        C195   1.282       .  A
O182        C187   1.274       .  A
O183        C186   1.270       .  A
O184        C196   1.280       .  A
O185        C198   1.253       .  A
C186        O191   1.273       .  A
C186        C608   1.469       .  S
C187        C512   1.492       .  S
O189        C192   1.287       .  A
O190        C192   1.286       .  A
C192        C497   1.502       .  S
O193        C198   1.265       .  A
O194        C196   1.263       .  A
C195        O197   1.263       .  A
C195        C521   1.484       .  S
C196        C533   1.479       .  S
C198        C548   1.496       .  S
Fe199       O215   2.084       .  S
Fe199       O205   2.044       .  S
Fe199       O212   2.092   1_655  S
Fe199       O204   2.065   1_655  S
Fe199       O210   1.937       .  S
Fe200       O203   2.094       .  S
Fe200       O207   2.057       .  S
Fe200       O211   2.078       .  S
Fe200       O216   2.038       .  S
Fe200       O210   1.956       .  S
Fe201       O219   2.050       .  S
Fe201       O206   2.108       .  S
Fe201       O213   2.077       .  S
Fe201       O202   2.094       .  S
Fe201       O210   1.955       .  S
O202        C209   1.280   1_655  A
O203        C217   1.281       .  A
O204        C209   1.275       .  A
O205        C208   1.266       .  A
O206        C218   1.280       .  A
O207        C220   1.254       .  A
C208        O213   1.270       .  A
C208        C584   1.487       .  S
C209        C464   1.497       .  S
O211        C214   1.280   1_655  A
O212        C214   1.280       .  A
C214        C473   1.493       .  S
O215        C220   1.262       .  A
O216        C218   1.261       .  A
C217        O219   1.271       .  A
C217        C485   1.466       .  S
C218        C536   1.489       .  S
C220        C668   1.476       .  S
Fe221       O237   2.106   1_565  S
Fe221       O227   2.029   1_565  S
Fe221       O234   2.091       .  S
Fe221       O226   2.067       .  S
Fe221       O232   1.927   1_565  S
Fe222       O225   2.093       .  S
Fe222       O229   2.040       .  S
Fe222       O233   2.080   1_545  S
Fe222       O238   2.024       .  S
Fe222       O232   1.939       .  S
Fe223       O241   2.055       .  S
Fe223       O228   2.117       .  S
Fe223       O235   2.085       .  S
Fe223       O224   2.089   1_545  S
Fe223       O232   1.948       .  S
O224        C231   1.280       .  A
O225        C239   1.284       .  A
O226        C231   1.276       .  A
O227        C230   1.266       .  A
O228        C240   1.280       .  A
O229        C242   1.250       .  A
C230        O235   1.271       .  A
C230        C560   1.471       .  S
C231        C425   1.493       .  S
O233        C236   1.284       .  A
O234        C236   1.283       .  A
C236        C440   1.493       .  S
O237        C242   1.261       .  A
O238        C240   1.256       .  A
C239        O241   1.274       .  A
C239        C524   1.465       .  S
C240        C449   1.498       .  S
C242        C620   1.492   1_554  S
Fe243       O259   2.096       .  S
Fe243       O249   2.056       .  S
Fe243       O256   2.099       .  S
Fe243       O248   2.070       .  S
Fe243       O254   1.926       .  S
Fe244       O247   2.119       .  S
Fe244       O251   2.050       .  S
Fe244       O255   2.092       .  S
Fe244       O260   2.055       .  S
Fe244       O254   1.947       .  S
Fe245       O263   2.042       .  S
Fe245       O250   2.100       .  S
Fe245       O257   2.077       .  S
Fe245       O246   2.079       .  S
Fe245       O254   1.947       .  S
O246        C253   1.274       .  A
O247        C261   1.281       .  A
O248        C253   1.274       .  A
O249        C252   1.271       .  A
O250        C262   1.281       .  A
O251        C264   1.254       .  A
C252        O257   1.274       .  A
C252        C677   1.478       .  S
C253        C413   1.496       .  S
O255        C258   1.286       .  A
O256        C258   1.285       .  A
C258        C401   1.499       .  S
O259        C264   1.265       .  A
O260        C262   1.265       .  A
C261        O263   1.262       .  A
C261        C488   1.486       .  S
C262        C452   1.482       .  S
C264        C596   1.484       .  S
Fe265       O281   2.110       .  S
Fe265       O271   2.059       .  S
Fe265       O278   2.101       .  S
Fe265       O270   2.055       .  S
Fe265       O276   1.920       .  S
Fe266       O269   2.113       .  S
Fe266       O273   2.033       .  S
Fe266       O277   2.075       .  S
Fe266       O282   2.029       .  S
Fe266       O276   1.928       .  S
Fe267       O285   2.047       .  S
Fe267       O272   2.114       .  S
Fe267       O279   2.088       .  S
Fe267       O268   2.091       .  S
Fe267       O276   1.940       .  S
O268        C275   1.277       .  A
O269        C283   1.284       .  A
O270        C275   1.273       .  A
O271        C274   1.272       .  A
O272        C284   1.284       .  A
O273        C286   1.248       .  A
C274        O279   1.275       .  A
C274        C728   1.488       .  S
C275        C437   1.490       .  S
O277        C280   1.283       .  A
O278        C280   1.285       .  A
C280        C509   1.491       .  S
O281        C286   1.264       .  A
O282        C284   1.260       .  A
C283        O285   1.265       .  A
C283        C380   1.487       .  S
C284        C392   1.490       .  S
C286        C845   1.483       .  S
Fe287       O303   2.098       .  S
Fe287       O293   2.038       .  S
Fe287       O300   2.090       .  S
Fe287       O292   2.071       .  S
Fe287       O298   1.927       .  S
Fe288       O291   2.110       .  S
Fe288       O295   2.054       .  S
Fe288       O299   2.092       .  S
Fe288       O304   2.043       .  S
Fe288       O298   1.946       .  S
Fe289       O307   2.044       .  S
Fe289       O294   2.104       .  S
Fe289       O301   2.083       .  S
Fe289       O290   2.076       .  S
Fe289       O298   1.944       .  S
O290        C297   1.274       .  A
O291        C305   1.282       .  A
O292        C297   1.276       .  A
O293        C296   1.266       .  A
O294        C306   1.281       .  A
O295        C308   1.254       .  A
C296        O301   1.273       .  A
C296        C905   1.481       .  S
C297        C476   1.494       .  S
O299        C302   1.285       .  A
O300        C302   1.282       .  A
C302        C416   1.496       .  S
O303        C308   1.264       .  A
O304        C306   1.262       .  A
C305        O307   1.266       .  A
C305        C365   1.476       .  S
C306        C389   1.478       .  S
C308        C788   1.483       .  S
Fe309       O325   2.104   1_655  S
Fe309       O315   2.040   1_655  S
Fe309       O322   2.101       .  S
Fe309       O314   2.078       .  S
Fe309       O320   1.940   1_655  S
Fe310       O313   2.090       .  S
Fe310       O317   2.042       .  S
Fe310       O321   2.075   1_455  S
Fe310       O326   2.023       .  S
Fe310       O320   1.960       .  S
Fe311       O329   2.049       .  S
Fe311       O316   2.121       .  S
Fe311       O323   2.086       .  S
Fe311       O312   2.087   1_455  S
Fe311       O320   1.960       .  S
O312        C319   1.281       .  A
O313        C327   1.282       .  A
O314        C319   1.279       .  A
O315        C318   1.264       .  A
O316        C328   1.278       .  A
O317        C330   1.252       .  A
C318        O323   1.270       .  A
C318        C833   1.488       .  S
C319        C500   1.499       .  S
O321        C324   1.280       .  A
O322        C324   1.283       .  A
C324        C428   1.496       .  S
O325        C330   1.264       .  A
O326        C328   1.255       .  A
C327        O329   1.274       .  A
C327        C377   1.462       .  S
C328        C353   1.491       .  S
C330        C716   1.496       .  S
Fe331       O347   2.103       .  S
Fe331       O337   2.043       .  S
Fe331       O344   2.104   1_565  S
Fe331       O336   2.078   1_565  S
Fe331       O342   1.936       .  S
Fe332       O335   2.099       .  S
Fe332       O339   2.043       .  S
Fe332       O343   2.086       .  S
Fe332       O348   2.045       .  S
Fe332       O342   1.949       .  S
Fe333       O351   2.053       .  S
Fe333       O338   2.106       .  S
Fe333       O345   2.069       .  S
Fe333       O334   2.080       .  S
Fe333       O342   1.956       .  S
O334        C341   1.277       .  A
O335        C349   1.282       .  A
O336        C341   1.277   1_545  A
O337        C340   1.267       .  A
O338        C350   1.278       .  A
O339        C352   1.250       .  A
C340        O345   1.269       .  A
C340        C776   1.460       .  S
C341        C404   1.495   1_565  S
O343        C346   1.286   1_565  A
O344        C346   1.288       .  A
C346        C461   1.498       .  S
O347        C352   1.262       .  A
O348        C350   1.260       .  A
C349        O351   1.271       .  A
C349        C368   1.473       .  S
C350        C356   1.484       .  S
C352        C917   1.499       .  S
C353        C354   1.406       .  A
C353        C358   1.415       .  A
C354        C355   1.413       .  A
C354        H359   1.083       .  S
C355        C356   1.413       .  A
C355        O360   1.371       .  S
C356        C357   1.402       .  A
C357        C358   1.404       .  A
C357        H361   1.084       .  S
C358        O362   1.373       .  S
O360        H364   0.992       .  S
O362        H363   0.992       .  S
C365        C366   1.413       .  A
C365        C370   1.399       .  A
C366        C367   1.398       .  A
C366        H371   1.079       .  S
C367        C368   1.397       .  A
C367        O372   1.371       .  S
C368        C369   1.412       .  A
C369        C370   1.401       .  A
C369        H373   1.080       .  S
C370        O374   1.372       .  S
O372        H376   0.992       .  S
O374        H375   0.992       .  S
C377        C378   1.390       .  A
C377        C382   1.412       .  A
C378        C379   1.393       .  A
C378        H383   1.085       .  S
C379        C380   1.424       .  A
C379        O384   1.373       .  S
C380        C381   1.402       .  A
C381        C382   1.405       .  A
C381        H385   1.083       .  S
C382        O386   1.370       .  S
O384        H388   0.992       .  S
O386        H387   0.989       .  S
C389        C390   1.393       .  A
C389        C394   1.418       .  A
C390        C391   1.403       .  A
C390        H395   1.084       .  S
C391        C392   1.425       .  A
C391        O396   1.373       .  S
C392        C393   1.399       .  A
C393        C394   1.405       .  A
C393        H397   1.083       .  S
C394        O398   1.372       .  S
O396        H400   0.992       .  S
O398        H399   0.992       .  S
C401        C402   1.405       .  A
C401        C406   1.417       .  A
C402        C403   1.409       .  A
C402        H407   1.083       .  S
C403        C404   1.417       .  A
C403        O408   1.371   1_545  S
C404        C405   1.404       .  A
C405        C406   1.404       .  A
C405        H409   1.084       .  S
C406        O410   1.372       .  S
O408        H412   0.991       .  S
O410        H411   0.992       .  S
C413        C414   1.403       .  A
C413        C418   1.419       .  A
C414        C415   1.402       .  A
C414        H419   1.084       .  S
C415        C416   1.417       .  A
C415        O420   1.372       .  S
C416        C417   1.403       .  A
C417        C418   1.408       .  A
C417        H421   1.083       .  S
C418        O422   1.371       .  S
O420        H424   0.992       .  S
O422        H423   0.992       .  S
C425        C426   1.409       .  A
C425        C430   1.412       .  A
C426        C427   1.408       .  A
C426        H431   1.083       .  S
C427        C428   1.413       .  A
C427        O432   1.372       .  S
C428        C429   1.408       .  A
C429        C430   1.401       .  A
C429        H433   1.083       .  S
C430        O434   1.372       .  S
O432        H436   0.992       .  S
O434        H435   0.992       .  S
C437        C438   1.405       .  A
C437        C442   1.413       .  A
C438        C439   1.393       .  A
C438        H443   1.084       .  S
C439        C440   1.414       .  A
C439        O444   1.373       .  S
C440        C441   1.409       .  A
C441        C442   1.410       .  A
C441        H445   1.083       .  S
C442        O446   1.371       .  S
O444        H448   0.992       .  S
O446        H447   0.992       .  S
C449        C450   1.400       .  A
C449        C454   1.429       .  A
C450        C451   1.405       .  A
C450        H455   1.083       .  S
C451        C452   1.419       .  A
C451        O456   1.372       .  S
C452        C453   1.392       .  A
C453        C454   1.403       .  A
C453        H457   1.084       .  S
C454        O458   1.373       .  S
O456        H460   0.992       .  S
O458        H459   0.992       .  S
C461        C462   1.408       .  A
C461        C466   1.412       .  A
C462        C463   1.402       .  A
C462        H467   1.084       .  S
C463        C464   1.412       .  A
C463        O468   1.371       .  S
C464        C465   1.411       .  A
C465        C466   1.409       .  A
C465        H469   1.083   1_455  S
C466        O470   1.371       .  S
O468        H472   0.992       .  S
O470        H471   0.992       .  S
C473        C474   1.404       .  A
C473        C478   1.415       .  A
C474        C475   1.406       .  A
C474        H479   1.083       .  S
C475        C476   1.419       .  A
C475        O480   1.371       .  S
C476        C477   1.404       .  A
C477        C478   1.401       .  A
C477        H481   1.084       .  S
C478        O482   1.371       .  S
O480        H484   0.992       .  S
O482        H483   0.991       .  S
C485        C486   1.411       .  A
C485        C490   1.396       .  A
C486        C487   1.407       .  A
C486        H491   1.083       .  S
C487        C488   1.405       .  A
C487        O492   1.371       .  S
C488        C489   1.413       .  A
C489        C490   1.393       .  A
C489        H493   1.083       .  S
C490        O494   1.372       .  S
O492        H496   0.992       .  S
O494        H495   0.992       .  S
C497        C498   1.407       .  A
C497        C502   1.417       .  A
C498        C499   1.410       .  A
C498        H503   1.083       .  S
C499        C500   1.417       .  A
C499        O504   1.371       .  S
C500        C501   1.405       .  A
C501        C502   1.404       .  A
C501        H505   1.084       .  S
C502        O506   1.372       .  S
O504        H508   0.992       .  S
O506        H507   0.992       .  S
C509        C510   1.404       .  A
C509        C514   1.415       .  A
C510        C511   1.405       .  A
C510        H515   1.083       .  S
C511        C512   1.417       .  A
C511        O516   1.371       .  S
C512        C513   1.404       .  A
C513        C514   1.401       .  A
C513        H517   1.084       .  S
C514        O518   1.372       .  S
O516        H520   0.992       .  S
O518        H519   0.992       .  S
C521        C522   1.414       .  A
C521        C526   1.404       .  A
C522        C523   1.393       .  A
C522        H527   1.082       .  S
C523        C524   1.395       .  A
C523        O528   1.372       .  S
C524        C525   1.412       .  A
C525        C526   1.406       .  A
C525        H529   1.083       .  S
C526        O530   1.371       .  S
O528        H532   0.992       .  S
O530        H531   0.992       .  S
C533        C534   1.409       .  A
C533        C538   1.405       .  A
C534        C535   1.409       .  A
C534        H539   1.084       .  S
C535        C536   1.408       .  A
C535        O540   1.371       .  S
C536        C537   1.411       .  A
C537        C538   1.404       .  A
C537        H541   1.084       .  S
C538        O542   1.371       .  S
O540        H544   0.992       .  S
O542        H543   0.992       .  S
C545        C546   1.397       .  A
C545        C550   1.410       .  A
C546        C547   1.395   1_556  A
C546        H551   1.084       .  S
C547        C548   1.420       .  A
C547        O552   1.372       .  S
C548        C549   1.409   1_554  A
C549        C550   1.410       .  A
C549        H553   1.083       .  S
C550        O554   1.371       .  S
O552        H556   0.992       .  S
O554        H555   0.992       .  S
C557        C558   1.409   1_556  A
C557        C562   1.413       .  A
C558        C559   1.411       .  A
C558        H563   1.083       .  S
C559        C560   1.408       .  A
C559        O564   1.370       .  S
C560        C561   1.397       .  A
C561        C562   1.383   1_554  A
C561        H565   1.084   1_554  S
C562        O566   1.374       .  S
O564        H568   0.992       .  S
O566        H567   0.992       .  S
C569        C570   1.405       .  A
C569        C574   1.414       .  A
C570        C571   1.405       .  A
C570        H575   1.084       .  S
C571        C572   1.419       .  A
C571        O576   1.372       .  S
C572        C573   1.407       .  A
C573        C574   1.414       .  A
C573        H577   1.083       .  S
C574        O578   1.370       .  S
O576        H580   0.992       .  S
O578        H579   0.991       .  S
C581        C582   1.407       .  A
C581        C586   1.411       .  A
C582        C583   1.406       .  A
C582        H587   1.083       .  S
C583        C584   1.413       .  A
C583        O588   1.371       .  S
C584        C585   1.405       .  A
C585        C586   1.392       .  A
C585        H589   1.083       .  S
C586        O590   1.373       .  S
O588        H592   0.990       .  S
O590        H591   0.992       .  S
C593        C594   1.404       .  A
C593        C598   1.404       .  A
C594        C595   1.406       .  A
C594        H599   1.084       .  S
C595        C596   1.411       .  A
C595        O600   1.372       .  S
C596        C597   1.408       .  A
C597        C598   1.402       .  A
C597        H601   1.084       .  S
C598        O602   1.372   1_545  S
O600        H604   0.992       .  S
O602        H603   0.992       .  S
C605        C606   1.401       .  A
C605        C610   1.406   1_556  A
C606        C607   1.399   1_556  A
C606        H611   1.084       .  S
C607        C608   1.405       .  A
C607        O612   1.373       .  S
C608        C609   1.405       .  A
C609        C610   1.405       .  A
C609        H613   1.084       .  S
C610        O614   1.371       .  S
O612        H616   0.992       .  S
O614        H615   0.992   1_554  S
C617        C618   1.408       .  A
C617        C622   1.405       .  A
C618        C619   1.411       .  A
C618        H623   1.084       .  S
C619        C620   1.411       .  A
C619        O624   1.371       .  S
C620        C621   1.409   1_556  A
C621        C622   1.395   1_554  A
C621        H625   1.083       .  S
C622        O626   1.373       .  S
O624        H628   0.992       .  S
O626        H627   0.992   1_556  S
C629        C630   1.408       .  A
C629        C634   1.397       .  A
C630        C631   1.393       .  A
C630        H635   1.084       .  S
C631        C632   1.399       .  A
C631        O636   1.372       .  S
C632        C633   1.405       .  A
C633        C634   1.387       .  A
C633        H637   1.085       .  S
C634        O638   1.370       .  S
O636        H640   0.992       .  S
O638        H639   0.991       .  S
C641        C642   1.404       .  A
C641        C646   1.395       .  A
C642        C643   1.388       .  A
C642        H647   1.079       .  S
C643        C644   1.396       .  A
C643        O648   1.372       .  S
C644        C645   1.405       .  A
C645        C646   1.381       .  A
C645        H649   1.084       .  S
C646        O650   1.371       .  S
O648        H652   0.992       .  S
O650        H651   0.992       .  S
C653        C654   1.415       .  A
C653        C658   1.403       .  A
C654        C655   1.409       .  A
C654        H659   1.084       .  S
C655        C656   1.402       .  A
C655        O660   1.371       .  S
C656        C657   1.413       .  A
C657        C658   1.408       .  A
C657        H661   1.083       .  S
C658        O662   1.371       .  S
O660        H664   0.992       .  S
O662        H663   0.992       .  S
C665        C666   1.400       .  A
C665        C670   1.406       .  A
C666        C667   1.400       .  A
C666        H671   1.080       .  S
C667        C668   1.408       .  A
C667        O672   1.373       .  S
C668        C669   1.407       .  A
C669        C670   1.405       .  A
C669        H673   1.083       .  S
C670        O674   1.371       .  S
O672        H676   0.991       .  S
O674        H675   0.992       .  S
C677        C678   1.405       .  A
C677        C682   1.412       .  A
C678        C679   1.400       .  A
C678        H683   1.080       .  S
C679        C680   1.407       .  A
C679        O684   1.372       .  S
C680        C681   1.400       .  A
C681        C682   1.395       .  A
C681        H685   1.084       .  S
C682        O686   1.372       .  S
O684        H688   0.992       .  S
O686        H687   0.992       .  S
C689        C690   1.403       .  A
C689        C694   1.410       .  A
C690        C691   1.405       .  A
C690        H695   1.084   1_545  S
C691        C692   1.415       .  A
C691        O696   1.371       .  S
C692        C693   1.406       .  A
C693        C694   1.394       .  A
C693        H697   1.083       .  S
C694        O698   1.373       .  S
O696        H700   0.992       .  S
O698        H699   0.992       .  S
C701        C702   1.404       .  A
C701        C706   1.404       .  A
C702        C703   1.403       .  A
C702        H707   1.084       .  S
C703        C704   1.414       .  A
C703        O708   1.371       .  S
C704        C705   1.410       .  A
C705        C706   1.396       .  A
C705        H709   1.083       .  S
C706        O710   1.372       .  S
O708        H712   0.992       .  S
O710        H711   0.992       .  S
C713        C714   1.407       .  A
C713        C718   1.403       .  A
C714        C715   1.410       .  A
C714        H719   1.084       .  S
C715        C716   1.414   1_556  A
C715        O720   1.371       .  S
C716        C717   1.411       .  A
C717        C718   1.397   1_554  A
C717        H721   1.083       .  S
C718        O722   1.372       .  S
O720        H724   0.992       .  S
O722        H723   0.992       .  S
C725        C726   1.403       .  A
C725        C730   1.408   1_554  A
C726        C727   1.405       .  A
C726        H731   1.084       .  S
C727        C728   1.413       .  A
C727        O732   1.368       .  S
C728        C729   1.406       .  A
C729        C730   1.394   1_554  A
C729        H733   1.084       .  S
C730        O734   1.372       .  S
O732        H736   0.992       .  S
O734        H735   0.992       .  S
C737        C738   1.406       .  A
C737        C742   1.419       .  A
C738        C739   1.400       .  A
C738        H743   1.083       .  S
C739        C740   1.407       .  A
C739        O744   1.372       .  S
C740        C741   1.397       .  A
C741        C742   1.393       .  A
C741        H745   1.084       .  S
C742        O746   1.372       .  S
O744        H748   0.991       .  S
O746        H747   0.992       .  S
C749        C750   1.395       .  A
C749        C754   1.406       .  A
C750        C751   1.393       .  A
C750        H755   1.084       .  S
C751        C752   1.416       .  A
C751        O756   1.371       .  S
C752        C753   1.406       .  A
C753        C754   1.395       .  A
C753        H757   1.083       .  S
C754        O758   1.372       .  S
O756        H760   0.992       .  S
O758        H759   0.991       .  S
C761        C762   1.397       .  A
C761        C766   1.422       .  A
C762        C763   1.407       .  A
C762        H767   1.083       .  S
C763        C764   1.420       .  A
C763        O768   1.371       .  S
C764        C765   1.398       .  A
C765        C766   1.412       .  A
C765        H769   1.083       .  S
C766        O770   1.372       .  S
O768        H772   0.992       .  S
O770        H771   0.992       .  S
C773        C774   1.402       .  A
C773        C778   1.410       .  A
C774        C775   1.388       .  A
C774        H779   1.084       .  S
C775        C776   1.403       .  A
C775        O780   1.373       .  S
C776        C777   1.403       .  A
C777        C778   1.405       .  A
C777        H781   1.084       .  S
C778        O782   1.371       .  S
O780        H784   0.992       .  S
O782        H783   0.991       .  S
C785        C786   1.405       .  A
C785        C790   1.406       .  A
C786        C787   1.406       .  A
C786        H791   1.084       .  S
C787        C788   1.410       .  A
C787        O792   1.373       .  S
C788        C789   1.407       .  A
C789        C790   1.405       .  A
C789        H793   1.084       .  S
C790        O794   1.371       .  S
O792        H796   0.992       .  S
O794        H795   0.992       .  S
C797        C798   1.403       .  A
C797        C802   1.405       .  A
C798        C799   1.401       .  A
C798        H803   1.084       .  S
C799        C800   1.413       .  A
C799        O804   1.372       .  S
C800        C801   1.409       .  A
C801        C802   1.395       .  A
C801        H805   1.083       .  S
C802        O806   1.374       .  S
O804        H808   0.992       .  S
O806        H807   0.992       .  S
C809        C810   1.398       .  A
C809        C814   1.410       .  A
C810        C811   1.398       .  A
C810        H815   1.084       .  S
C811        C812   1.419       .  A
C811        O816   1.372       .  S
C812        C813   1.407       .  A
C813        C814   1.405       .  A
C813        H817   1.083       .  S
C814        O818   1.371       .  S
O816        H820   0.992       .  S
O818        H819   0.991       .  S
C821        C822   1.408       .  A
C821        C826   1.396       .  A
C822        C823   1.397       .  A
C822        H827   1.084       .  S
C823        C824   1.401       .  A
C823        O828   1.371       .  S
C824        C825   1.404       .  A
C825        C826   1.382       .  A
C825        H829   1.083       .  S
C826        O830   1.370       .  S
O828        H832   0.992       .  S
O830        H831   0.992       .  S
C833        C834   1.409       .  A
C833        C838   1.413       .  A
C834        C835   1.406       .  A
C834        H839   1.083       .  S
C835        C836   1.409   1_554  A
C835        O840   1.371       .  S
C836        C837   1.402       .  A
C837        C838   1.394   1_556  A
C837        H841   1.084       .  S
C838        O842   1.373   1_454  S
O840        H844   0.992       .  S
O842        H843   0.992   1_655  S
C845        C846   1.404   1_554  A
C845        C850   1.414       .  A
C846        C847   1.411       .  A
C846        H851   1.083       .  S
C847        C848   1.416       .  A
C847        O852   1.371       .  S
C848        C849   1.400       .  A
C849        C850   1.391   1_556  A
C849        H853   1.084   1_556  S
C850        O854   1.373       .  S
O852        H856   0.992       .  S
O854        H855   0.992       .  S
C857        C858   1.400       .  A
C857        C862   1.407       .  A
C858        C859   1.393       .  A
C858        H863   1.084       .  S
C859        C860   1.415       .  A
C859        O864   1.372       .  S
C860        C861   1.407       .  A
C861        C862   1.397       .  A
C861        H865   1.083       .  S
C862        O866   1.372       .  S
O864        H868   0.992       .  S
O866        H867   0.992       .  S
C869        C870   1.403       .  A
C869        C874   1.406       .  A
C870        C871   1.403       .  A
C870        H875   1.084       .  S
C871        C872   1.414       .  A
C871        O876   1.371       .  S
C872        C873   1.406       .  A
C873        C874   1.390       .  A
C873        H877   1.083       .  S
C874        O878   1.372       .  S
O876        H880   0.992       .  S
O878        H879   0.991       .  S
C881        C882   1.387       .  A
C881        C886   1.420       .  A
C882        C883   1.382       .  A
C882        H887   1.084       .  S
C883        C884   1.424       .  A
C883        O888   1.373       .  S
C884        C885   1.390       .  A
C885        C886   1.381       .  A
C885        H889   1.083       .  S
C886        O890   1.373       .  S
O888        H892   0.992       .  S
O890        H891   0.992       .  S
C893        C894   1.403       .  A
C893        C898   1.415       .  A
C894        C895   1.407       .  A
C894        H899   1.084       .  S
C895        C896   1.423       .  A
C895        O900   1.372       .  S
C896        C897   1.407       .  A
C897        C898   1.415       .  A
C897        H901   1.083       .  S
C898        O902   1.367       .  S
O900        H904   0.992       .  S
O902        H903   0.992       .  S
C905        C906   1.406       .  A
C905        C910   1.412       .  A
C906        C907   1.408       .  A
C906        H911   1.083       .  S
C907        C908   1.415       .  A
C907        O912   1.371       .  S
C908        C909   1.403       .  A
C909        C910   1.387       .  A
C909        H913   1.083       .  S
C910        O914   1.373       .  S
O912        H916   0.992       .  S
O914        H915   0.992       .  S
C917        C918   1.410       .  A
C917        C922   1.419       .  A
C918        C919   1.411       .  A
C918        H923   1.083       .  S
C919        C920   1.410       .  A
C919        O924   1.371       .  S
C920        C921   1.398       .  A
C921        C922   1.398       .  A
C921        H925   1.084       .  S
C922        O926   1.372       .  S
O924        H928   0.992       .  S
O926        H927   0.992       .  S
