geometry optimzed in LAMMPS
_audit_creation_date              2020-12-01 
_audit_creation_method            'lammps2cif' 
_symmetry_space_group_name_H-M    'P1' 
_symmetry_Int_Tables_number       1 
_symmetry_cell_setting            triclinic 
loop_ 
_symmetry_equiv_pos_as_xyz 
  x,y,z 
_cell_length_a                    25.54082608 
_cell_length_b                    25.769828911866913 
_cell_length_c                    32.610168824446 
_cell_angle_alpha                 89.64601252949376 
_cell_angle_beta                  90.11911309009885 
_cell_angle_gamma                 89.68828978787678 
loop_ 
_atom_site_label 
_atom_site_type_symbol 
_atom_site_fract_x 
_atom_site_fract_y 
_atom_site_fract_z 
_atom_site_charge 
O1          O  0.49958023  0.09381645  0.92301669    -0.85900
O2          O  0.60189567  0.07577114  0.94581676    -0.82900
C3          C  0.58981089  0.03167137  0.93284912     0.97600
O4          O  0.60039975  0.02212045  0.89584254    -0.83000
O5          O  0.60440479  0.04000315  0.81100275    -0.85600
C6          C  0.55935714  0.03915884  0.79507265     1.02100
O7          O  0.52426239  0.06962401  0.80703841    -0.78400
O8          O  0.46843143  0.12162308  0.86338921    -0.78600
C9          C  0.46423268  0.09442930  0.89588931     1.02100
O10         O  0.52016731  0.19907193  0.91223178    -0.85900
O11         O  0.62906902  0.17923618  0.92192330    -0.82900
C12         C  0.67347907  0.15783035  0.91637514     0.97600
O13         O  0.67501792  0.11052917  0.90552937    -0.83000
O14         O  0.66485761  0.13045166  0.82380034    -0.85600
C15         C  0.64130019  0.15531120  0.79569968     1.02100
O16         O  0.59166093  0.15668408  0.79291656    -0.78400
O17         O  0.53324761  0.21279650  0.84740502    -0.78500
C18         C  0.51519793  0.22760976  0.88118865     1.02000
Cr19       Cr  0.56396614  0.13625934  0.92225088     1.93700
Cr20       Cr  0.63199915  0.07813012  0.86040063     1.93200
Cr21       Cr  0.53313003  0.13883555  0.83095958     1.39100
O22         O  0.57626786  0.11840303  0.87036984    -1.23600
O23         O  0.39803446  0.99780317  0.53906033    -0.85900
O24         O  0.41488161  0.89470272  0.51609098    -0.82900
C25         C  0.45979883  0.90381807  0.52973525     0.97600
O26         O  0.46846212  0.89361542  0.56690137    -0.83000
O27         O  0.45156300  0.89761221  0.65033705    -0.85600
C28         C  0.45530982  0.94480343  0.66077345     1.02100
O29         O  0.42186776  0.97744752  0.64874775    -0.78400
O30         O  0.35899967  0.02695360  0.59424472    -0.78600
C31         C  0.39025163  0.03403348  0.56457462     1.02100
O32         O  0.29072508  0.97550722  0.54982360    -0.85900
O33         O  0.31119582  0.86900753  0.53892621    -0.82900
C34         C  0.33145311  0.82452073  0.54541717     0.97600
O35         O  0.37829484  0.82119416  0.55884341    -0.83000
O36         O  0.35942906  0.83471610  0.63968413    -0.85600
C37         C  0.33774038  0.85882362  0.66851446     1.02100
O38         O  0.33941115  0.90781008  0.67112872    -0.78400
O39         O  0.27601445  0.95620323  0.61368241    -0.78500
C40         C  0.26099310  0.97671637  0.58048992     1.02000
Cr41       Cr  0.35462621  0.93313939  0.53914839     1.93700
Cr42       Cr  0.41200563  0.86553783  0.60271958     1.93200
Cr43       Cr  0.35055357  0.96345397  0.62926059     1.39100
O44         O  0.37189291  0.92045237  0.59099478    -1.23600
O45         O  0.13346968  0.98575353  0.92364752    -0.85900
O46         O  0.12207034  0.87999791  0.94612053    -0.82900
C47         C  0.07774834  0.89235314  0.93341819     0.97600
O48         O  0.06998614  0.88728113  0.89556932    -0.83000
O49         O  0.08928930  0.89741514  0.81271189    -0.85600
C50         C  0.09495033  0.94253051  0.79763266     1.02100
O51         O  0.13296275  0.97033602  0.80782146    -0.78400
O52         O  0.17705134  0.01917094  0.87136621    -0.78600
C53         C  0.14078190  0.02227006  0.89796695     1.02100
O54         O  0.24223372  0.97046653  0.92332768    -0.85900
O55         O  0.22636540  0.86039080  0.92805831    -0.82900
C56         C  0.20820674  0.81614613  0.91811107     0.97600
O57         O  0.16272624  0.81294386  0.90144583    -0.83000
O58         O  0.17931711  0.82982612  0.82058149    -0.85600
C59         C  0.21240455  0.85299639  0.79856156     1.02100
O60         O  0.21972781  0.90134672  0.80047085    -0.78400
O61         O  0.26810552  0.94925946  0.86294392    -0.78500
C62         C  0.27722773  0.97080714  0.89648699     1.02000
Cr63       Cr  0.18046877  0.92339944  0.92687999     1.93700
Cr64       Cr  0.12784961  0.86052438  0.85910230     1.93200
Cr65       Cr  0.19750544  0.95645888  0.83837748     1.39100
O66         O  0.16898741  0.91311865  0.87371466    -1.23600
O67         O  0.04667436  0.10707705  0.54779874    -0.85900
O68         O  0.94703564  0.08774220  0.51620431    -0.82900
C69         C  0.95971673  0.04379657  0.52920604     0.97600
O70         O  0.95152218  0.03462402  0.56657346    -0.83000
O71         O  0.94606999  0.04792307  0.64987764    -0.85600
C72         C  0.98585252  0.05815423  0.67140170     1.02100
O73         O  0.01199674  0.09826075  0.66476403    -0.78400
O74         O  0.06933301  0.14484280  0.60598880    -0.78600
C75         C  0.07881459  0.11271993  0.57729513     1.02100
O76         O  0.02354759  0.21212323  0.55029892    -0.85900
O77         O  0.91478676  0.18861582  0.53756873    -0.82900
C78         C  0.87096443  0.16634971  0.54382200     0.97600
O79         O  0.87018058  0.11928777  0.55641119    -0.83000
O80         O  0.87308192  0.13230078  0.63890024    -0.85600
C81         C  0.88937264  0.16726856  0.66261842     1.02100
O82         O  0.93706311  0.18010911  0.66459429    -0.78400
O83         O  0.99504406  0.23280423  0.60990445    -0.78500
C84         C  0.02111539  0.24425775  0.57882096     1.02000
Cr85       Cr  0.98134729  0.14823762  0.54155106     1.93700
Cr86       Cr  0.91400507  0.08654357  0.60178160     1.93200
Cr87       Cr  0.00046862  0.16183386  0.63304634     1.39100
O88         O  0.96497783  0.13243487  0.59322195    -1.23600
O89         O  0.39006376  0.44569604  0.91500286    -0.85900
O90         O  0.40731339  0.54623707  0.94382664    -0.82900
C91         C  0.45220580  0.53512191  0.93127231     0.97600
O92         O  0.46275568  0.54724989  0.89478674    -0.83000
O93         O  0.44897486  0.55045791  0.81077643    -0.85600
C94         C  0.45106660  0.50403904  0.79808393     1.02100
O95         O  0.41600571  0.47225497  0.80774181    -0.78400
O96         O  0.35040224  0.42175085  0.85884551    -0.78600
C97         C  0.38280823  0.41207779  0.88728558     1.02100
O98         O  0.28284733  0.47204665  0.90422139    -0.85900
O99         O  0.30537896  0.57627887  0.92058064    -0.82900
C100        C  0.32587887  0.62069223  0.91566371     0.97600
O101        O  0.37333441  0.62390845  0.90341076    -0.83000
O102        O  0.35861117  0.61676103  0.82124344    -0.85600
C103        C  0.33729005  0.59531966  0.79092048     1.02100
O104        O  0.33614948  0.54646417  0.78713310    -0.78400
O105        O  0.26949328  0.49692301  0.84124645    -0.78500
C106        C  0.25303182  0.47550675  0.87359205     1.02000
Cr107      Cr  0.34742577  0.51118203  0.91786313     1.93700
Cr108      Cr  0.40837653  0.58096187  0.85869651     1.93200
Cr109      Cr  0.34445224  0.48776040  0.82656824     1.39100
O110        O  0.36596889  0.52726693  0.86698174    -1.23600
O111        O  0.50500721  0.35767015  0.53943493    -0.85900
O112        O  0.60936350  0.37241455  0.51850430    -0.82900
C113        C  0.59724738  0.41603862  0.53207054     0.97600
O114        O  0.60449062  0.42330230  0.56986394    -0.83000
O115        O  0.60230681  0.40199638  0.65315685    -0.85600
C116        C  0.55711211  0.40008534  0.66869333     1.02100
O117        O  0.52443127  0.36703869  0.65714173    -0.78400
O118        O  0.47311868  0.32027762  0.59515065    -0.78600
C119        C  0.46941110  0.35358837  0.56629650     1.02100
O120        O  0.52259420  0.25022199  0.54414018    -0.85900
O121        O  0.63317982  0.26844631  0.53813605    -0.82900
C122        C  0.67769964  0.28842773  0.54581859     0.97600
O123        O  0.68012393  0.33400261  0.56069462    -0.83000
O124        O  0.66637044  0.31206721  0.64158776    -0.85600
C125        C  0.64240700  0.28304040  0.66658257     1.02100
O126        O  0.59296370  0.27980135  0.66712630    -0.78400
O127        O  0.54151748  0.22964990  0.60666072    -0.78500
C128        C  0.51939909  0.21874496  0.57352270     1.02000
Cr129      Cr  0.56861105  0.31259010  0.53855942     1.93700
Cr130      Cr  0.63438972  0.36550318  0.60482318     1.93200
Cr131      Cr  0.53648075  0.30089753  0.62853584     1.39100
O132        O  0.57991176  0.32590921  0.59156048    -1.23600
O133        O  0.03575260  0.35065666  0.90493074    -0.85900
O134        O  0.93249817  0.36440356  0.93580644    -0.82900
C135        C  0.94731460  0.40778221  0.92441800     0.97600
O136        O  0.93845496  0.41808459  0.88744020    -0.83000
O137        O  0.93942508  0.40516832  0.80613147    -0.85600
C138        C  0.97574019  0.39241367  0.78202861     1.02100
O139        O  0.99795813  0.34891682  0.78489002    -0.78400
O140        O  0.05992147  0.31229365  0.84700863    -0.78600
C141        C  0.06803560  0.34527857  0.87542601     1.02100
O142        O  0.02011907  0.24601860  0.90685930    -0.85900
O143        O  0.90875745  0.26326705  0.91709456    -0.82900
C144        C  0.86349930  0.28288963  0.90982380     0.97600
O145        O  0.85897917  0.32833618  0.89374892    -0.83000
O146        O  0.86707976  0.31967211  0.81038275    -0.85600
C147        C  0.88285893  0.28041648  0.79066125     1.02100
O148        O  0.92935192  0.26359721  0.79300562    -0.78400
O149        O  0.99294278  0.21848349  0.84868220    -0.78500
C150        C  0.01872184  0.21094792  0.88082579     1.02000
Cr151      Cr  0.97278742  0.30662584  0.91255673     1.93700
Cr152      Cr  0.90435845  0.36464957  0.85078351     1.93200
Cr153      Cr  0.99219671  0.28815517  0.82169621     1.39100
O154        O  0.95604801  0.31933058  0.86047150    -1.23600
O155        O  0.14687237  0.46050297  0.54101731    -0.85900
O156        O  0.12397824  0.56106857  0.51728365    -0.82900
C157        C  0.08054330  0.54829633  0.53205504     0.97600
O158        O  0.07291526  0.55780604  0.56940951    -0.83000
O159        O  0.09368965  0.55621128  0.65266204    -0.85600
C160        C  0.09423358  0.50918318  0.66442651     1.02100
O161        O  0.12948145  0.47878144  0.65250365    -0.78400
O162        O  0.18853169  0.43204171  0.59574034    -0.78600
C163        C  0.15474478  0.42536653  0.56763488     1.02100
O164        O  0.25420350  0.48600267  0.54777740    -0.85900
O165        O  0.22756825  0.59212764  0.53747002    -0.82900
C166        C  0.20550667  0.63546501  0.54480907     0.97600
O167        O  0.15861166  0.63597641  0.55829688    -0.83000
O168        O  0.18128537  0.62491310  0.63864610    -0.85600
C169        C  0.20905857  0.60259709  0.66542797     1.02100
O170        O  0.21072101  0.55356394  0.66905968    -0.78400
O171        O  0.27113027  0.50711484  0.61045179    -0.78500
C172        C  0.28578475  0.48667370  0.57750159     1.02000
Cr173      Cr  0.18753357  0.52601622  0.53907313     1.93700
Cr174      Cr  0.12910599  0.59014715  0.60354654     1.93200
Cr175      Cr  0.19821760  0.49630947  0.62932369     1.39100
O176        O  0.17210684  0.53776700  0.59135337    -1.23600
O177        O  0.56963391  0.64103824  0.36773164    -0.85900
O178        O  0.51955353  0.58667597  0.31018009    -0.82900
C179        C  0.48776448  0.55440011  0.29626139     0.97600
O180        O  0.44262129  0.55012060  0.31195512    -0.83000
O181        O  0.44440611  0.53056505  0.39679805    -0.85600
C182        C  0.45225150  0.53911723  0.43436589     1.02100
O183        O  0.43884113  0.58262998  0.44745396    -0.78400
O184        O  0.54090145  0.60087416  0.42315424    -0.78600
C185        C  0.57561116  0.60735690  0.39601316     1.02100
O186        O  0.49550390  0.72635962  0.35439559    -0.85900
O187        O  0.44580883  0.66887167  0.29642262    -0.82900
C188        C  0.39655694  0.66409488  0.29846228     0.97600
O189        O  0.37458078  0.63639336  0.32525031    -0.83000
O190        O  0.36519493  0.61776142  0.40622967    -0.85600
C191        C  0.36737166  0.66464867  0.41888163     1.02100
O192        O  0.41137894  0.68511757  0.42638736    -0.78400
O193        O  0.51828692  0.70749267  0.41668367    -0.78500
C194        C  0.51647656  0.73955004  0.38759231     1.02000
Cr195      Cr  0.50432002  0.65408578  0.33495550     1.93700
Cr196      Cr  0.41048289  0.58584387  0.36157115     1.93200
Cr197      Cr  0.47628806  0.64336897  0.42524923     1.39100
O198        O  0.46330106  0.62839524  0.37301703    -1.23600
O199        O  0.67353243  0.52096499  0.08915789    -0.85900
O200        O  0.63182696  0.47252219  0.15477046    -0.82900
C201        C  0.59291364  0.44561829  0.16482440     0.97600
O202        O  0.58665919  0.40072576  0.14996432    -0.83000
O203        O  0.56902849  0.38787798  0.06799524    -0.85600
C204        C  0.57673657  0.39245702  0.03018541     1.02100
O205        O  0.62090274  0.37938401  0.01779906    -0.78400
O206        O  0.63237654  0.48535093  0.03650906    -0.78600
C207        C  0.63893657  0.52291314  0.06089830     1.02100
O208        O  0.76686560  0.45304386  0.09901722    -0.85900
O209        O  0.71997347  0.40503807  0.16275338    -0.82900
C210        C  0.71075942  0.35716944  0.16703828     0.97600
O211        O  0.67711961  0.33376277  0.14581860    -0.83000
O212        O  0.66265259  0.31341172  0.06502269    -0.85600
C213        C  0.70803600  0.31699417  0.04829715     1.02100
O214        O  0.72550467  0.36111366  0.03715686    -0.78400
O215        O  0.74000871  0.47097498  0.03791379    -0.78500
C216        C  0.77530577  0.47258844  0.06442976     1.02000
Cr217      Cr  0.69611099  0.45927222  0.12369235     1.93700
Cr218      Cr  0.62655129  0.36254315  0.10544256     1.93200
Cr219      Cr  0.67912052  0.42338190  0.03598945     1.39100
O220        O  0.66761537  0.41485925  0.08949684    -1.23600
O221        O  0.68880902  0.92619268  0.37264757    -0.85900
O222        O  0.62671659  0.97321078  0.31685284    -0.82900
C223        C  0.59737705  0.00505933  0.29873048     0.97600
O224        O  0.59736992  0.05236217  0.30950177    -0.83000
O225        O  0.57405790  0.05535374  0.39324752    -0.85600
C226        C  0.58186178  0.04514523  0.43055896     1.02100
O227        O  0.62504145  0.05833145  0.44520126    -0.78400
O228        O  0.64263724  0.95504020  0.42351263    -0.78600
C229        C  0.65121518  0.92015480  0.39703088     1.02100
O230        O  0.76988081  0.99922100  0.35509981    -0.85900
O231        O  0.70875740  0.04358426  0.29467038    -0.82900
C232        C  0.70991022  0.09261781  0.29672368     0.97600
O233        O  0.68653622  0.11717160  0.32452257    -0.83000
O234        O  0.66382176  0.13087365  0.40443951    -0.85600
C235        C  0.71028707  0.12774331  0.41933205     1.02100
O236        O  0.72962802  0.08348662  0.42793669    -0.78400
O237        O  0.75189657  0.97781100  0.41813134    -0.78500
C238        C  0.78308810  0.97758700  0.38823206     1.02000
Cr239      Cr  0.69706283  0.98882263  0.33696540     1.93700
Cr240      Cr  0.63232560  0.08555936  0.35957397     1.93200
Cr241      Cr  0.68668165  0.01948490  0.42603128     1.39100
O242        O  0.67314305  0.03204583  0.37353623    -1.23600
O243        O  0.56566226  0.81262410  0.09422974    -0.85900
O244        O  0.51451212  0.84916367  0.16064277    -0.82900
C245        C  0.49387400  0.89253394  0.16705587     0.97600
O246        O  0.45235215  0.90565043  0.14812981    -0.83000
O247        O  0.43735300  0.92029797  0.06641455    -0.85600
C248        C  0.44111462  0.91198877  0.02875864     1.02100
O249        O  0.42709397  0.86832392  0.01704798    -0.78400
O250        O  0.53293013  0.85358884  0.03947050    -0.78600
C251        C  0.56909191  0.84687454  0.06576543     1.02100
O252        O  0.49499572  0.72047254  0.09938819    -0.85900
O253        O  0.44372934  0.76546415  0.16073321    -0.82900
C254        C  0.39776452  0.78199265  0.16665050     0.97600
O255        O  0.37897406  0.82078321  0.14790742    -0.83000
O256        O  0.35936055  0.83068573  0.06608585    -0.85600
C257        C  0.36137685  0.78548095  0.04957092     1.02100
O258        O  0.40531801  0.76630098  0.03826928    -0.78400
O259        O  0.51743939  0.74777296  0.03990531    -0.78500
C260        C  0.51760378  0.71232826  0.06618434     1.02000
Cr261      Cr  0.50158224  0.78921887  0.12578869     1.93700
Cr262      Cr  0.41029922  0.86632312  0.10544202     1.93200
Cr263      Cr  0.46967293  0.80948466  0.03742054     1.39100
O264        O  0.46031263  0.82157937  0.09069918    -1.23600
O265        O  0.96618302  0.62217772  0.08341887    -0.85900
O266        O  0.01409904  0.57532887  0.14779137    -0.82900
C267        C  0.04363598  0.53890147  0.15942098     0.97600
O268        O  0.08870033  0.53378315  0.14370809    -0.83000
O269        O  0.09947010  0.51888018  0.05953176    -0.85600
C270        C  0.09452360  0.52892341  0.02179783     1.02100
O271        O  0.10845644  0.57309943  0.01080071    -0.78400
O272        O  0.00238233  0.58590695  0.02880425    -0.78600
C273        C  0.96476986  0.59014900  0.05384058     1.02100
O274        O  0.03360536  0.71294912  0.09796368    -0.85900
O275        O  0.08127570  0.66067881  0.15967495    -0.82900
C276        C  0.13004895  0.65327187  0.16289438     0.97600
O277        O  0.15503366  0.62301309  0.13955427    -0.83000
O278        O  0.17541140  0.60976094  0.05834520    -0.85600
C279        C  0.17271802  0.65621345  0.04420638     1.02100
O280        O  0.12842421  0.67564141  0.03417569    -0.78400
O281        O  0.01730418  0.69257219  0.03528113    -0.78500
C282        C  0.01411154  0.72463733  0.06386794     1.02000
Cr283      Cr  0.02748439  0.64101072  0.11921784     1.93700
Cr284      Cr  0.12590535  0.57386640  0.09856069     1.93200
Cr285      Cr  0.06501098  0.63112563  0.03083918     1.39100
O286        O  0.07292734  0.61560566  0.08394120    -1.23600
O287        O  0.84938273  0.52170892  0.36787300    -0.85900
O288        O  0.91226226  0.47233056  0.31421870    -0.82900
C289        C  0.94168671  0.43923441  0.29807588     0.97600
O290        O  0.94286967  0.39319413  0.31207694    -0.83000
O291        O  0.96471151  0.39598528  0.39646225    -0.85600
C292        C  0.95660694  0.40711514  0.43350322     1.02100
O293        O  0.91305293  0.39485939  0.44824324    -0.78400
O294        O  0.89229614  0.49560560  0.42232248    -0.78600
C295        C  0.88381212  0.52976768  0.39491871     1.02100
O296        O  0.76821746  0.44747615  0.35244560    -0.85900
O297        O  0.83123841  0.39951617  0.29573420    -0.82900
C298        C  0.83227887  0.35058198  0.29922913     0.97600
O299        O  0.85544147  0.32790168  0.32842308    -0.83000
O300        O  0.87680740  0.31910917  0.40931889    -0.85600
C301        C  0.82932387  0.32160502  0.42173431     1.02100
O302        O  0.80896574  0.36566800  0.42866882    -0.78400
O303        O  0.78489189  0.47023701  0.41500842    -0.78500
C304        C  0.75368504  0.46897238  0.38505949     1.02000
Cr305      Cr  0.84186280  0.45702508  0.33512958     1.93700
Cr306      Cr  0.90797893  0.36264433  0.36308292     1.93200
Cr307      Cr  0.85053790  0.43043728  0.42570771     1.39100
O308        O  0.86594018  0.41616155  0.37397414    -1.23600
O309        O  0.96547943  0.80641751  0.37150068    -0.85900
O310        O  0.01218996  0.86995218  0.31529741    -0.82900
C311        C  0.04551151  0.90106303  0.30106046     0.97600
O312        O  0.09346137  0.89548869  0.31014460    -0.83000
O313        O  0.09882852  0.91523360  0.39362703    -0.85600
C314        C  0.09099454  0.90763574  0.43141967     1.02100
O315        O  0.10118779  0.86338742  0.44545521    -0.78400
O316        O  0.99750582  0.84666739  0.42480447    -0.78600
C317        C  0.96027844  0.83917483  0.39995454     1.02100
O318        O  0.03601932  0.72445643  0.35086922    -0.85900
O319        O  0.08091887  0.78664284  0.29146436    -0.82900
C320        C  0.13023318  0.78216303  0.29358057     0.97600
O321        O  0.15630509  0.80348677  0.32171074    -0.83000
O322        O  0.17309998  0.82558751  0.40223017    -0.85600
C323        C  0.17065557  0.77951768  0.41668059     1.02100
O324        O  0.12640262  0.75986534  0.42437653    -0.78400
O325        O  0.01993147  0.73966130  0.41528146    -0.78500
C326        C  0.01815336  0.70969370  0.38503004     1.02000
Cr327      Cr  0.02721881  0.79833591  0.33476901     1.93700
Cr328      Cr  0.12695378  0.85779513  0.35827923     1.93200
Cr329      Cr  0.06208824  0.80318247  0.42425552     1.39100
O330        O  0.07244957  0.81897698  0.37182146    -1.23600
O331        O  0.86431690  0.91799242  0.09535995    -0.85900
O332        O  0.91458478  0.97129183  0.15505001    -0.82900
C333        C  0.94723748  0.00463816  0.16628068     0.97600
O334        O  0.94829495  0.04900789  0.14958277    -0.83000
O335        O  0.96607125  0.04904055  0.06540295    -0.85600
C336        C  0.95662242  0.03981522  0.02824723     1.02100
O337        O  0.91233743  0.05282544  0.01520741    -0.78400
O338        O  0.89535064  0.94981829  0.03710009    -0.78600
C339        C  0.89255341  0.91375327  0.06342709     1.02100
O340        O  0.77193827  0.98425269  0.10871831    -0.85900
O341        O  0.82678815  0.03893710  0.16580672    -0.82900
C342        C  0.83040560  0.08797618  0.16429333     0.97600
O343        O  0.85759704  0.11140529  0.13787949    -0.83000
O344        O  0.87535681  0.12453377  0.05679095    -0.85600
C345        C  0.82789546  0.12223930  0.04442805     1.02100
O346        O  0.80797583  0.07807610  0.03743932    -0.78400
O347        O  0.78958536  0.96999084  0.04483014    -0.78500
C348        C  0.75903541  0.96605332  0.07456608     1.02000
Cr349      Cr  0.84599006  0.98178689  0.12798008     1.93700
Cr350      Cr  0.90943601  0.07936457  0.10090292     1.93200
Cr351      Cr  0.85215056  0.01389648  0.03721924     1.39100
O352        O  0.86874941  0.02489533  0.08962676    -1.23600
C353        C  0.95547228  0.99068204  0.24087810    -0.20800
C354        C  0.98038912  0.99177265  0.20259195    -0.07400
C355        C  0.03302010  0.97442084  0.20022766     0.13500
C356        C  0.05561259  0.94802953  0.23398603    -0.20900
C357        C  0.02782185  0.94123764  0.27075679    -0.07400
C358        C  0.97974593  0.96803004  0.27536154     0.13500
C359        C  0.95556775  0.97528541  0.31690185    -0.24200
H360        H  0.91645946  0.00710751  0.24369106     0.14700
H361        H  0.09420914  0.93093334  0.23088812     0.14800
C362        C  0.06624531  0.98315942  0.16297679    -0.24200
H363        H  0.91820176  0.99748385  0.31524627     0.05000
H364        H  0.98315699  0.99693169  0.33666676     0.08200
H365        H  0.94778062  0.93752906  0.33128501     0.08200
H366        H  0.04411253  0.00337575  0.13847520     0.08200
H367        H  0.08135853  0.94561184  0.15132103     0.08200
H368        H  0.10021132  0.00766576  0.17130281     0.05000
C369        C  0.95422837  0.65011423  0.35516084    -0.20800
C370        C  0.98698670  0.66169844  0.38822290    -0.07400
C371        C  0.98283827  0.63226279  0.42488785     0.13500
C372        C  0.94818626  0.59011156  0.42639183    -0.20900
C373        C  0.91554786  0.57807001  0.39304355    -0.07400
C374        C  0.91749084  0.61012565  0.35732080     0.13500
C375        C  0.88096583  0.60400114  0.32118977    -0.24200
H376        H  0.95569481  0.67430597  0.32785296     0.14700
H377        H  0.94634802  0.56662335  0.45403073     0.14800
C378        C  0.01484202  0.64465937  0.46245459    -0.24200
H379        H  0.88741727  0.63412517  0.29724091     0.05000
H380        H  0.83970389  0.60789627  0.33142124     0.08200
H381        H  0.88730072  0.56601322  0.30638316     0.08200
H382        H  0.00397775  0.68340257  0.47444457     0.08200
H383        H  0.05714634  0.64368346  0.45483434     0.08200
H384        H  0.00774200  0.61651757  0.48766472     0.05000
C385        C  0.90665664  0.82347074  0.03884874    -0.20800
C386        C  0.92600006  0.86733204  0.05877395    -0.07400
C387        C  0.97630630  0.86527206  0.07680576     0.13500
C388        C  0.00464541  0.81862512  0.07707753    -0.20900
C389        C  0.98487310  0.77407186  0.05846511    -0.07400
C390        C  0.93555709  0.77676859  0.03830670     0.13500
C391        C  0.91165259  0.72991366  0.01840652    -0.24200
H392        H  0.86831013  0.82532663  0.02467557     0.14700
H393        H  0.04243919  0.81696870  0.09228743     0.14800
C394        C  0.00085012  0.91116854  0.09715172    -0.24200
H395        H  0.87214178  0.73851863  0.00569998     0.05000
H396        H  0.90757909  0.69842656  0.04149754     0.08200
H397        H  0.93669846  0.71652427  0.99275710     0.08200
H398        H  0.00466208  0.90263478  0.13039751     0.08200
H399        H  0.97792516  0.94738241  0.09313130     0.08200
H400        H  0.04021943  0.91802322  0.08386718     0.05000
C401        C  0.16529096  0.73444098  0.18952813    -0.20800
C402        C  0.15642209  0.68137734  0.19588887    -0.07400
C403        C  0.15462985  0.66144346  0.23623433     0.13500
C404        C  0.15506854  0.69594521  0.26931518    -0.20900
C405        C  0.15563414  0.74968652  0.26250447    -0.07400
C406        C  0.16412785  0.76909216  0.22254861     0.13500
C407        C  0.16692985  0.82654809  0.21445749    -0.24200
H408        H  0.16646296  0.74950155  0.15840791     0.14700
H409        H  0.14842153  0.68129083  0.30011601     0.14800
C410        C  0.14656537  0.60441135  0.24409034    -0.24200
H411        H  0.17366242  0.83525488  0.18148386     0.05000
H412        H  0.19962831  0.84337480  0.23239218     0.08200
H413        H  0.12961940  0.84530233  0.22364787     0.08200
H414        H  0.17897697  0.58194880  0.22995523     0.08200
H415        H  0.10874691  0.59194989  0.23061788     0.08200
H416        H  0.14580216  0.59522437  0.27740963     0.05000
C417        C  0.96697395  0.50185176  0.19491248    -0.20800
C418        C  0.02198960  0.50328108  0.19217427    -0.07400
C419        C  0.05126700  0.47690081  0.22346561     0.13500
C420        C  0.02447694  0.45320465  0.25681012    -0.20900
C421        C  0.96959733  0.45508741  0.25988579    -0.07400
C422        C  0.94072519  0.47787217  0.22736503     0.13500
C423        C  0.88154421  0.47734999  0.22633493    -0.24200
H424        H  0.94346952  0.52160356  0.17188745     0.14700
H425        H  0.04676722  0.43548143  0.28157095     0.14800
C426        C  0.11020165  0.47452091  0.22479936    -0.24200
H427        H  0.86570943  0.49458038  0.19753628     0.05000
H428        H  0.86503865  0.50003857  0.25204234     0.08200
H429        H  0.86749638  0.43681410  0.22804680     0.08200
H430        H  0.12964772  0.49502965  0.19939238     0.08200
H431        H  0.12310943  0.43332855  0.22399842     0.08200
H432        H  0.12428342  0.49189728  0.25385066     0.05000
C433        C  0.31646270  0.70052539  0.03675229    -0.20800
C434        C  0.31192197  0.75426724  0.04398894    -0.07400
C435        C  0.26059741  0.77544236  0.04805255     0.13500
C436        C  0.21659913  0.74265370  0.04565568    -0.20900
C437        C  0.22141856  0.68865074  0.04081584    -0.07400
C438        C  0.27246792  0.66753334  0.03579811     0.13500
C439        C  0.28144708  0.61026619  0.02951885    -0.24200
H440        H  0.35510262  0.68354232  0.03337320     0.14700
H441        H  0.17787302  0.75927359  0.04960042     0.14800
C442        C  0.25101685  0.83238956  0.05554351    -0.24200
H443        H  0.32318753  0.60127362  0.02299880     0.05000
H444        H  0.25792042  0.59657434  0.00317646     0.08200
H445        H  0.27047824  0.58837584  0.05757583     0.08200
H446        H  0.26945264  0.85588390  0.03092586     0.08200
H447        H  0.26703526  0.84344603  0.08590166     0.08200
H448        H  0.20858898  0.84210553  0.05578602     0.05000
C449        C  0.66300840  0.85835761  0.05055573    -0.20800
C450        C  0.61593535  0.88006649  0.06406777    -0.07400
C451        C  0.61547595  0.93176718  0.07883354     0.13500
C452        C  0.66265458  0.95911076  0.08195698    -0.20900
C453        C  0.70994562  0.93679629  0.06944532    -0.07400
C454        C  0.70998990  0.88612782  0.05269745     0.13500
C455        C  0.75975212  0.85995180  0.03882837    -0.24200
H456        H  0.66318661  0.81923576  0.03874869     0.14700
H457        H  0.66250975  0.99812927  0.09425203     0.14800
C458        C  0.56652562  0.95897296  0.09284303    -0.24200
H459        H  0.75265350  0.81978727  0.02804756     0.05000
H460        H  0.78781620  0.85766382  0.06477848     0.08200
H461        H  0.77735398  0.88189413  0.01298010     0.08200
H462        H  0.53133975  0.93458879  0.08999641     0.08200
H463        H  0.56055579  0.99468813  0.07423981     0.08200
H464        H  0.57076560  0.97038633  0.12541421     0.05000
C465        C  0.71518229  0.22449005  0.42537207    -0.20800
C466        C  0.74161602  0.17646947  0.42591368    -0.07400
C467        C  0.79728228  0.17698168  0.42860876     0.13500
C468        C  0.82410745  0.22476549  0.42933953    -0.20900
C469        C  0.79772098  0.27275041  0.42689980    -0.07400
C470        C  0.74201104  0.27220964  0.42529487     0.13500
C471        C  0.70990508  0.32127856  0.42093181    -0.24200
H472        H  0.67281631  0.22482095  0.42348937     0.14700
H473        H  0.86650706  0.22452327  0.43067595     0.14800
C474        C  0.82957147  0.12777759  0.42879935    -0.24200
H475        H  0.66739356  0.31303296  0.41846978     0.05000
H476        H  0.72148583  0.34256638  0.39269365     0.08200
H477        H  0.71533411  0.34631242  0.44807400     0.08200
H478        H  0.82182292  0.10517569  0.40064218     0.08200
H479        H  0.82021899  0.10388927  0.45610173     0.08200
H480        H  0.87220562  0.13589788  0.42981842     0.05000
C481        C  0.88354782  0.87472069  0.36357806    -0.20800
C482        C  0.91188265  0.87114624  0.40051252    -0.07400
C483        C  0.89589891  0.90162257  0.43420396     0.13500
C484        C  0.85524311  0.93796715  0.42872507    -0.20900
C485        C  0.83004758  0.94430002  0.39063475    -0.07400
C486        C  0.84394433  0.91152556  0.35776898     0.13500
C487        C  0.81706069  0.91414331  0.31647770    -0.24200
H488        H  0.89455952  0.85073964  0.33777397     0.14700
H489        H  0.84250146  0.96116791  0.45451220     0.14800
C490        C  0.91888483  0.89399958  0.47639098    -0.24200
H491        H  0.83251693  0.88455040  0.29496812     0.05000
H492        H  0.82354790  0.95273449  0.30210856     0.08200
H493        H  0.77447856  0.90710622  0.32006737     0.08200
H494        H  0.96085913  0.90382330  0.47652314     0.08200
H495        H  0.91408819  0.85296231  0.48616701     0.08200
H496        H  0.89937344  0.91906530  0.49942704     0.05000
C497        C  0.82569576  0.12067354  0.23403224    -0.20800
C498        C  0.80208114  0.11711670  0.19541537    -0.07400
C499        C  0.74765448  0.12454037  0.19128065     0.13500
C500        C  0.71677612  0.12581226  0.22669416    -0.20900
C501        C  0.74000151  0.11981936  0.26538985    -0.07400
C502        C  0.79489827  0.12200554  0.26941435     0.13500
C503        C  0.82077316  0.12018922  0.31093251    -0.24200
H504        H  0.86775822  0.11568250  0.23677405     0.14700
H505        H  0.67447289  0.12488690  0.22395645     0.14800
C506        C  0.72213083  0.12601028  0.14960589    -0.24200
H507        H  0.86408187  0.12239651  0.30854723     0.05000
H508        H  0.81095416  0.08346844  0.32689518     0.08200
H509        H  0.80692489  0.15347007  0.32954603     0.08200
H510        H  0.72924445  0.08889925  0.13339264     0.08200
H511        H  0.73877188  0.15840440  0.13127429     0.08200
H512        H  0.67915063  0.13210880  0.15182853     0.05000
C513        C  0.59774772  0.94941990  0.23830995    -0.20800
C514        C  0.56925308  0.98489713  0.26186352    -0.07400
C515        C  0.51632130  0.99455304  0.25135980     0.13500
C516        C  0.49274330  0.96592506  0.21907224    -0.20900
C517        C  0.52069881  0.92705297  0.19770315    -0.07400
C518        C  0.57471110  0.91969302  0.20759572     0.13500
C519        C  0.60951796  0.87978566  0.18719238    -0.24200
H520        H  0.63879210  0.94299626  0.24544531     0.14700
H521        H  0.45180891  0.97234216  0.21180181     0.14800
C522        C  0.48439297  0.03324350  0.27499385    -0.24200
H523        H  0.65117798  0.88335222  0.19656508     0.05000
H524        H  0.60818834  0.88457158  0.15351461     0.08200
H525        H  0.59716944  0.84003931  0.19599496     0.08200
H526        H  0.50227204  0.07226952  0.27221975     0.08200
H527        H  0.48311123  0.02167910  0.30778169     0.08200
H528        H  0.44355754  0.03571566  0.26334868     0.05000
C529        C  0.71398070  0.22107263  0.03622976    -0.20800
C530        C  0.74001468  0.26849415  0.04176460    -0.07400
C531        C  0.79551778  0.26757577  0.04431490     0.13500
C532        C  0.82263901  0.21970287  0.04286909    -0.20900
C533        C  0.79650630  0.17183720  0.03928043    -0.07400
C534        C  0.74105382  0.17313706  0.03477896     0.13500
C535        C  0.70930090  0.12444252  0.02960206    -0.24200
H536        H  0.67165670  0.22139332  0.03375404     0.14700
H537        H  0.86488190  0.21975118  0.04595424     0.14800
C538        C  0.82667846  0.31640745  0.05103589    -0.24200
H539        H  0.66681964  0.13301445  0.02635612     0.05000
H540        H  0.71423857  0.09873533  0.05676739     0.08200
H541        H  0.72183755  0.10381109  0.00150561     0.08200
H542        H  0.81349603  0.33580353  0.07955463     0.08200
H543        H  0.82172952  0.34326077  0.02460960     0.08200
H544        H  0.86923468  0.30817001  0.05420372     0.05000
C545        C  0.87142151  0.47872868  0.07062396    -0.20800
C546        C  0.82464881  0.50019171  0.05589548    -0.07400
C547        C  0.82544015  0.54936490  0.03607838     0.13500
C548        C  0.87263980  0.57685459  0.03361847    -0.20900
C549        C  0.91889271  0.55624818  0.05007318    -0.07400
C550        C  0.91857299  0.50585366  0.06766772     0.13500
C551        C  0.96664477  0.47963317  0.08465886    -0.24200
H552        H  0.87103079  0.44081451  0.08528039     0.14700
H553        H  0.87307527  0.61535009  0.02010727     0.14800
C554        C  0.77622764  0.57480747  0.02011054    -0.24200
H555        H  0.97264841  0.44236710  0.06875428     0.05000
H556        H  0.96079686  0.47007690  0.11733975     0.08200
H557        H  0.00231923  0.50336710  0.08143470     0.08200
H558        H  0.74797345  0.57880755  0.04564568     0.08200
H559        H  0.75893842  0.55115374  0.99525144     0.08200
H560        H  0.78375355  0.61415645  0.00740344     0.05000
C561        C  0.75047514  0.31834447  0.27258262    -0.20800
C562        C  0.80478413  0.32143400  0.26775336    -0.07400
C563        C  0.82671899  0.31879283  0.22816777     0.13500
C564        C  0.79365013  0.32284284  0.19404510    -0.20900
C565        C  0.73963549  0.32949821  0.19926267    -0.07400
C566        C  0.71738181  0.32366283  0.23854916     0.13500
C567        C  0.65948844  0.33017944  0.24511785    -0.24200
H568        H  0.73401203  0.32033913  0.30318069     0.14700
H569        H  0.81054193  0.32656452  0.16368471     0.14800
C570        C  0.88501003  0.31713694  0.22139173    -0.24200
H571        H  0.64854031  0.32472949  0.27780805     0.05000
H572        H  0.63792731  0.30123774  0.22660890     0.08200
H573        H  0.64758161  0.36997996  0.23566523     0.08200
H574        H  0.90712029  0.31472747  0.25067803     0.08200
H575        H  0.89765042  0.35236318  0.20442562     0.08200
H576        H  0.89517520  0.28240218  0.20301000     0.05000
C577        C  0.52449196  0.61658259  0.07239934    -0.20800
C578        C  0.54700678  0.66334094  0.05959681    -0.07400
C579        C  0.59899324  0.66292861  0.04443779     0.13500
C580        C  0.62731914  0.61604915  0.04352447    -0.20900
C581        C  0.60524417  0.56957442  0.05738850    -0.07400
C582        C  0.55270569  0.56975066  0.07131748     0.13500
C583        C  0.52527249  0.52188315  0.08646839    -0.24200
H584        H  0.48476949  0.61672409  0.08413082     0.14700
H585        H  0.66735936  0.61598492  0.03282502     0.14800
C586        C  0.62620072  0.71217356  0.03187383    -0.24200
H587        H  0.48998458  0.51536680  0.06742322     0.05000
H588        H  0.51209910  0.52764753  0.11845497     0.08200
H589        H  0.55022343  0.48673502  0.08554485     0.08200
H590        H  0.62692992  0.73905716  0.05827175     0.08200
H591        H  0.60545273  0.73061261  0.00560142     0.08200
H592        H  0.66732771  0.70493817  0.02236323     0.05000
C593        C  0.27077363  0.66883420  0.43016852    -0.20800
C594        C  0.31807865  0.69535942  0.42405144    -0.07400
C595        C  0.31641509  0.75009866  0.41900938     0.13500
C596        C  0.26797931  0.77610580  0.41963746    -0.20900
C597        C  0.22033762  0.74944716  0.42360204    -0.07400
C598        C  0.22207718  0.69479076  0.42982420     0.13500
C599        C  0.17322955  0.66273819  0.43469900    -0.24200
H600        H  0.27177666  0.62706420  0.43421632     0.14700
H601        H  0.26739540  0.81780377  0.41517594     0.14800
C602        C  0.36479671  0.78160121  0.41011186    -0.24200
H603        H  0.18234685  0.62089492  0.43923813     0.05000
H604        H  0.14843376  0.66629990  0.40680593     0.08200
H605        H  0.15106425  0.67581199  0.46197194     0.08200
H606        H  0.38432512  0.76688493  0.38207083     0.08200
H607        H  0.39218298  0.77949235  0.43640884     0.08200
H608        H  0.35549416  0.82327068  0.40484919     0.05000
C609        C  0.63267262  0.54869361  0.35699803    -0.20800
C610        C  0.62141298  0.57238747  0.39466233    -0.07400
C611        C  0.65081451  0.55833203  0.42966555     0.13500
C612        C  0.69139469  0.52194150  0.42571515    -0.20900
C613        C  0.70394426  0.49912310  0.38770767    -0.07400
C614        C  0.67284326  0.51182283  0.35299158     0.13500
C615        C  0.68141514  0.48760941  0.31148437    -0.24200
H616        H  0.60950593  0.55878107  0.33029413     0.14700
H617        H  0.71447716  0.51256222  0.45273307     0.14800
C618        C  0.64246761  0.58240168  0.47119562    -0.24200
H619        H  0.65165586  0.50076371  0.28872321     0.05000
H620        H  0.67847782  0.44472263  0.31401329     0.08200
H621        H  0.72037345  0.49860871  0.29929915     0.08200
H622        H  0.61287636  0.61391640  0.47108387     0.08200
H623        H  0.67976386  0.59957904  0.48203799     0.08200
H624        H  0.63009538  0.55201944  0.49337860     0.05000
C625        C  0.57546241  0.80304798  0.35591964    -0.20800
C626        C  0.54627490  0.78861968  0.39027293    -0.07400
C627        C  0.55198017  0.81711846  0.42691887     0.13500
C628        C  0.58650299  0.85952676  0.42788653    -0.20900
C629        C  0.61709842  0.87341168  0.39369245    -0.07400
C630        C  0.61138797  0.84389303  0.35686962     0.13500
C631        C  0.64090039  0.85182273  0.31705285    -0.24200
H632        H  0.57192351  0.78046282  0.32807187     0.14700
H633        H  0.59018729  0.88154384  0.45592991     0.14800
C634        C  0.52147880  0.80354480  0.46498121    -0.24200
H635        H  0.66310914  0.81584065  0.30985752     0.05000
H636        H  0.66906228  0.88366684  0.31568827     0.08200
H637        H  0.61231557  0.85891321  0.29190532     0.08200
H638        H  0.53231392  0.76419882  0.47611363     0.08200
H639        H  0.47890172  0.80528290  0.45831574     0.08200
H640        H  0.52987465  0.83069038  0.49037789     0.05000
C641        C  0.36298157  0.74615780  0.27229672    -0.20800
C642        C  0.36577004  0.69220692  0.26777513    -0.07400
C643        C  0.35899581  0.67005742  0.22876873     0.13500
C644        C  0.35967787  0.70252681  0.19423190    -0.20900
C645        C  0.36764171  0.75596029  0.19863676    -0.07400
C646        C  0.36454743  0.77865905  0.23778791     0.13500
C647        C  0.36991225  0.83641529  0.24335517    -0.24200
H648        H  0.36752151  0.76274156  0.30257068     0.14700
H649        H  0.36112271  0.68559770  0.16388665     0.14800
C650        C  0.35698054  0.61207213  0.22348006    -0.24200
H651        H  0.36728170  0.84748751  0.27615924     0.05000
H652        H  0.33805860  0.85677315  0.22641115     0.08200
H653        H  0.40835393  0.84967883  0.23151802     0.08200
H654        H  0.39365975  0.59378803  0.23497028     0.08200
H655        H  0.32330338  0.59629861  0.24094901     0.08200
H656        H  0.35207018  0.60127329  0.19077563     0.05000
C657        C  0.55462380  0.52450410  0.19566800    -0.20800
C658        C  0.55551501  0.46999381  0.19474043    -0.07400
C659        C  0.52542960  0.44277607  0.22443071     0.13500
C660        C  0.50109241  0.47063925  0.25680132    -0.20900
C661        C  0.50465155  0.52506128  0.25915398    -0.07400
C662        C  0.52896944  0.55215009  0.22646706     0.13500
C663        C  0.52794199  0.61073277  0.22336169    -0.24200
H664        H  0.57546335  0.54618245  0.17230739     0.14700
H665        H  0.48096373  0.44980962  0.28098246     0.14800
C666        C  0.51942730  0.38483079  0.22266401    -0.24200
H667        H  0.54457969  0.62475583  0.19388042     0.05000
H668        H  0.48692334  0.62498340  0.22497130     0.08200
H669        H  0.55145095  0.62828816  0.24822685     0.08200
H670        H  0.55811462  0.36558538  0.22469689     0.08200
H671        H  0.50029049  0.37403041  0.19335967     0.08200
H672        H  0.49490749  0.36999475  0.24821697     0.05000
C673        C  0.98405845  0.44305770  0.50051375    -0.20800
C674        C  0.99160656  0.44143216  0.45781397    -0.07400
C675        C  0.02584917  0.47798170  0.43956157     0.13500
C676        C  0.05186161  0.51401803  0.46450987    -0.20900
C677        C  0.04465679  0.51528887  0.50729845    -0.07400
C678        C  0.00998985  0.47904863  0.52540996     0.13500
C679        C  0.00166050  0.47601528  0.57106773    -0.24200
H680        H  0.95753942  0.41563224  0.51470863     0.14700
H681        H  0.07869959  0.54118772  0.45039528     0.14800
C682        C  0.03470075  0.48034204  0.39389021    -0.24200
H683        H  0.97412149  0.44462065  0.57977506     0.05000
H684        H  0.98513868  0.51318906  0.58236334     0.08200
H685        H  0.03957982  0.46765750  0.58640235     0.08200
H686        H  0.99713678  0.48822396  0.37779305     0.08200
H687        H  0.05166467  0.44307539  0.38318785     0.08200
H688        H  0.06227754  0.51171562  0.38522124     0.05000
C689        C  0.00482851  0.48487315  0.93401619    -0.20800
C690        C  0.98464691  0.43853112  0.95009117    -0.07400
C691        C  0.00604402  0.41924259  0.98767495     0.13500
C692        C  0.04461465  0.44783792  0.00838964    -0.20900
C693        C  0.06236549  0.49574452  0.99368142    -0.07400
C694        C  0.04334801  0.51347822  0.95484680     0.13500
C695        C  0.06298527  0.56234785  0.93449858    -0.24200
H696        H  0.99052086  0.49884673  0.90463789     0.14700
H697        H  0.05998907  0.43320845  0.03723588     0.14800
C698        C  0.98919490  0.36843950  0.00674378    -0.24200
H699        H  0.04608792  0.56796804  0.90336146     0.05000
H700        H  0.10612191  0.56001494  0.93107876     0.08200
H701        H  0.05191779  0.59689680  0.95272000     0.08200
H702        H  0.99913455  0.33571157  0.98617562     0.08200
H703        H  0.94645361  0.36933710  0.01292223     0.08200
H704        H  0.00929481  0.36064454  0.03639753     0.05000
C705        C  0.01669219  0.47625517  0.76112138    -0.20800
C706        C  0.99463433  0.42864103  0.74977047    -0.07400
C707        C  0.99860728  0.41250170  0.70854839     0.13500
C708        C  0.02890433  0.44143336  0.68084250    -0.20900
C709        C  0.05392358  0.48744014  0.69260957    -0.07400
C710        C  0.04634926  0.50582638  0.73300213     0.13500
C711        C  0.07285977  0.55427297  0.74745236    -0.24200
H712        H  0.01376294  0.48855751  0.79277206     0.14700
H713        H  0.03471940  0.42680851  0.65013676     0.14800
C714        C  0.97059904  0.36480000  0.69364772    -0.24200
H715        H  0.06361373  0.56280149  0.78000179     0.05000
H716        H  0.05961267  0.58778675  0.72849508     0.08200
H717        H  0.11592160  0.54938654  0.74475971     0.08200
H718        H  0.92794673  0.36923323  0.69912168     0.08200
H719        H  0.98493844  0.32973700  0.71008678     0.08200
H720        H  0.97647271  0.35870540  0.66026787     0.05000
C721        C  0.52601214  0.48147316  0.52597452    -0.20800
C722        C  0.56434873  0.45134729  0.50638542    -0.07400
C723        C  0.56405036  0.44881788  0.46289212     0.13500
C724        C  0.52542833  0.47586910  0.44056600    -0.20900
C725        C  0.48668616  0.50545528  0.46017568    -0.07400
C726        C  0.48730170  0.50845250  0.50365865     0.13500
C727        C  0.44691368  0.53918272  0.52711888    -0.24200
H728        H  0.52516444  0.48253930  0.55917465     0.14700
H729        H  0.52626871  0.47475466  0.40734359     0.14800
C730        C  0.60430561  0.41793625  0.43945880    -0.24200
H731        H  0.44957660  0.53180073  0.56066914     0.05000
H732        H  0.40698642  0.52837416  0.51696227     0.08200
H733        H  0.45285523  0.58135614  0.52214176     0.08200
H734        H  0.59762213  0.37581680  0.44397774     0.08200
H735        H  0.64426661  0.42804374  0.45002479     0.08200
H736        H  0.60214681  0.42581534  0.40596209     0.05000
C737        C  0.41086011  0.41186034  0.60471377    -0.20800
C738        C  0.42431970  0.39015850  0.56678872    -0.07400
C739        C  0.39545356  0.40470104  0.53159995     0.13500
C740        C  0.35180895  0.43792704  0.53586741    -0.20900
C741        C  0.33695707  0.45834451  0.57429950    -0.07400
C742        C  0.36838845  0.44609022  0.60903581     0.13500
C743        C  0.35748267  0.46751809  0.65116740    -0.24200
H744        H  0.43392264  0.40178869  0.63153572     0.14700
H745        H  0.32867366  0.44733916  0.50891569     0.14800
C746        C  0.40916090  0.38381316  0.48992154    -0.24200
H747        H  0.38733072  0.45478899  0.67399807     0.05000
H748        H  0.31891203  0.45375954  0.66231121     0.08200
H749        H  0.35816542  0.51058219  0.65013655     0.08200
H750        H  0.40793741  0.34075556  0.49053273     0.08200
H751        H  0.44896102  0.39663805  0.48103879     0.08200
H752        H  0.38144348  0.39785576  0.46596941     0.05000
C753        C  0.46221112  0.47270263  0.98912645    -0.20800
C754        C  0.48607076  0.50011127  0.95657265    -0.07400
C755        C  0.53876425  0.48877121  0.94692832     0.13500
C756        C  0.56553982  0.45052232  0.96966588    -0.20900
C757        C  0.54220332  0.42456041  0.00315252    -0.07400
C758        C  0.48926704  0.43499439  0.01222004     0.13500
C759        C  0.46042022  0.40577436  0.04533200    -0.24200
H760        H  0.42143268  0.47996209  0.99626186     0.14700
H761        H  0.60618189  0.44275780  0.96234284     0.14800
C762        C  0.56796989  0.51798135  0.91402203    -0.24200
H763        H  0.41820476  0.41628858  0.04596329     0.05000
H764        H  0.47682817  0.41486509  0.07593791     0.08200
H765        H  0.46344265  0.36340999  0.03975622     0.08200
H766        H  0.56644780  0.56023132  0.92044085     0.08200
H767        H  0.55060889  0.51034614  0.88350917     0.08200
H768        H  0.60982129  0.50618638  0.91264607     0.05000
C769        C  0.26133322  0.64419397  0.76458697    -0.20800
C770        C  0.31257168  0.62613780  0.75826374    -0.07400
C771        C  0.33194529  0.62201153  0.71795732     0.13500
C772        C  0.29703475  0.62602003  0.68508266    -0.20900
C773        C  0.24347120  0.63248239  0.69229417    -0.07400
C774        C  0.22632818  0.64795109  0.73139871     0.13500
C775        C  0.17064145  0.66485040  0.73817148    -0.24200
H776        H  0.24704445  0.64921099  0.79560458     0.14700
H777        H  0.31021651  0.61582002  0.65455243     0.14800
C778        C  0.38780011  0.60655377  0.70996330    -0.24200
H779        H  0.16303361  0.67382040  0.77090371     0.05000
H780        H  0.14347090  0.63404589  0.72841822     0.08200
H781        H  0.16253369  0.70032356  0.71967511     0.08200
H782        H  0.39455308  0.56680726  0.72202966     0.08200
H783        H  0.41462813  0.63411986  0.72530886     0.08200
H784        H  0.39695535  0.60646051  0.67667322     0.05000
C785        C  0.18742012  0.42181642  0.83819131    -0.20800
C786        C  0.20261229  0.44719017  0.87411175    -0.07400
C787        C  0.17361100  0.43864098  0.91052839     0.13500
C788        C  0.13019838  0.40542317  0.90972060    -0.20900
C789        C  0.11572313  0.37863531  0.87402890    -0.07400
C790        C  0.14528212  0.38709786  0.83762408     0.13500
C791        C  0.13348853  0.36028039  0.79770297    -0.24200
H792        H  0.21032484  0.42741248  0.81055077     0.14700
H793        H  0.10799661  0.39957099  0.93764791     0.14800
C794        C  0.18788971  0.46421065  0.95047496    -0.24200
H795        H  0.16085078  0.37200883  0.77292471     0.05000
H796        H  0.09357915  0.37075656  0.78723207     0.08200
H797        H  0.13741847  0.31761101  0.80153599     0.08200
H798        H  0.18856871  0.50692198  0.94640401     0.08200
H799        H  0.22657352  0.45018053  0.96145321     0.08200
H800        H  0.15950390  0.45485080  0.97506120     0.05000
C801        C  0.49804030  0.51029458  0.73094516    -0.20800
C802        C  0.49238794  0.48562521  0.76927815    -0.07400
C803        C  0.51766262  0.43718241  0.77573357     0.13500
C804        C  0.54187340  0.41194692  0.74269613    -0.20900
C805        C  0.54222637  0.43403253  0.70332596    -0.07400
C806        C  0.52163497  0.48449935  0.69758438     0.13500
C807        C  0.52171944  0.50960413  0.65580257    -0.24200
H808        H  0.48074181  0.54819780  0.72617703     0.14700
H809        H  0.55831506  0.37343983  0.74717367     0.14800
C810        C  0.51889294  0.41170640  0.81742301    -0.24200
H811        H  0.50377228  0.54895313  0.65637777     0.05000
H812        H  0.49900615  0.48553677  0.63404570     0.08200
H813        H  0.56257397  0.51318006  0.64461490     0.08200
H814        H  0.47878905  0.40305211  0.82774260     0.08200
H815        H  0.53775127  0.43792702  0.83977451     0.08200
H816        H  0.54124665  0.37460546  0.81724533     0.05000
C817        C  0.82269644  0.25019099  0.53405796    -0.20800
C818        C  0.82043367  0.19583996  0.53795425    -0.07400
C819        C  0.77011338  0.17239312  0.54016303     0.13500
C820        C  0.72473053  0.20375612  0.53952346    -0.20900
C821        C  0.72729444  0.25817791  0.53889858    -0.07400
C822        C  0.77740927  0.28160528  0.53546708     0.13500
C823        C  0.78441200  0.33968997  0.53422962    -0.24200
H824        H  0.86057342  0.26877077  0.53225562     0.14700
H825        H  0.68678468  0.18545385  0.54215488     0.14800
C826        C  0.76289806  0.11457700  0.54481302    -0.24200
H827        H  0.82567537  0.35063835  0.52805434     0.05000
H828        H  0.77360901  0.35667803  0.56424178     0.08200
H829        H  0.75989842  0.35706451  0.50962252     0.08200
H830        H  0.77852150  0.10132999  0.57490500     0.08200
H831        H  0.78298384  0.09377964  0.51968464     0.08200
H832        H  0.72095631  0.10347074  0.54375952     0.05000
C833        C  0.02637157  0.97394232  0.52297179    -0.20800
C834        C  0.99177765  0.00849399  0.50326434    -0.07400
C835        C  0.99258177  0.01182330  0.45979553     0.13500
C836        C  0.02816500  0.98106713  0.43762957    -0.20900
C837        C  0.06197111  0.94557941  0.45729838    -0.07400
C838        C  0.06047157  0.94173585  0.50081734     0.13500
C839        C  0.09290921  0.90268766  0.52460042    -0.24200
H840        H  0.02645546  0.97168053  0.55617578     0.14700
H841        H  0.02772092  0.98300978  0.40443449     0.14800
C842        C  0.95475716  0.04593876  0.43622672    -0.24200
H843        H  0.09084655  0.90931320  0.55818756     0.05000
H844        H  0.13450609  0.90495973  0.51550422     0.08200
H845        H  0.07820986  0.86293853  0.51889733     0.08200
H846        H  0.96334170  0.08742744  0.44186007     0.08200
H847        H  0.91398955  0.03710892  0.44560874     0.08200
H848        H  0.95753453  0.03969776  0.40264968     0.05000
C849        C  0.06141306  0.31578444  0.53838966    -0.20800
C850        C  0.05295340  0.29223690  0.57678388    -0.07400
C851        C  0.08112965  0.31041004  0.61120940     0.13500
C852        C  0.11411973  0.35340201  0.60678235    -0.20900
C853        C  0.12207408  0.37763852  0.56853738    -0.07400
C854        C  0.09635507  0.35742835  0.53362657     0.13500
C855        C  0.10791325  0.37698663  0.49099386    -0.24200
H856        H  0.04161105  0.30047970  0.51167274     0.14700
H857        H  0.13410861  0.36802324  0.63364756     0.14800
C858        C  0.07959292  0.28278403  0.65213490    -0.24200
H859        H  0.08627077  0.35491768  0.46728468     0.05000
H860        H  0.15043027  0.37301408  0.48467702     0.08200
H861        H  0.09633289  0.41809261  0.48775960     0.08200
H862        H  0.09296418  0.24200378  0.64846675     0.08200
H863        H  0.03935388  0.28309242  0.66459873     0.08200
H864        H  0.10544481  0.30142580  0.67511524     0.05000
C865        C  0.84496799  0.16990051  0.72866804    -0.20800
C866        C  0.85352380  0.19386498  0.69064480    -0.07400
C867        C  0.84701682  0.24809110  0.68690139     0.13500
C868        C  0.84385933  0.27803617  0.72259375    -0.20900
C869        C  0.84872451  0.25417974  0.76115076    -0.07400
C870        C  0.84282688  0.19987951  0.76436685     0.13500
C871        C  0.84004512  0.17363126  0.80569694    -0.24200
H872        H  0.84817271  0.12803781  0.73123096     0.14700
H873        H  0.84632059  0.31991788  0.72023333     0.14800
C874        C  0.84892356  0.27433948  0.64551573    -0.24200
H875        H  0.83556532  0.13096132  0.80279455     0.05000
H876        H  0.80570642  0.18886293  0.82273018     0.08200
H877        H  0.87614299  0.18110308  0.82367181     0.08200
H878        H  0.81700688  0.25906828  0.62591168     0.08200
H879        H  0.88712471  0.26685340  0.63044313     0.08200
H880        H  0.84363241  0.31701152  0.64802386     0.05000
C881        C  0.32103172  0.71673675  0.92930316    -0.20800
C882        C  0.29455584  0.66952707  0.92321441    -0.07400
C883        C  0.23900930  0.67117311  0.92063761     0.13500
C884        C  0.21251880  0.71924171  0.92190966    -0.20900
C885        C  0.23911772  0.76675091  0.92510473    -0.07400
C886        C  0.29435317  0.76499556  0.93050570     0.13500
C887        C  0.32610385  0.81356429  0.93623823    -0.24200
H888        H  0.36330067  0.71609670  0.93210737     0.14700
H889        H  0.17028437  0.71966934  0.91877407     0.14800
C890        C  0.20676282  0.62304931  0.91422125    -0.24200
H891        H  0.36848967  0.80482393  0.93993742     0.05000
H892        H  0.31301798  0.83403879  0.96426462     0.08200
H893        H  0.32161488  0.83951679  0.90917543     0.08200
H894        H  0.21158920  0.59636409  0.94071216     0.08200
H895        H  0.21884827  0.60341092  0.88551844     0.08200
H896        H  0.16436189  0.63216454  0.91148315     0.05000
C897        C  0.06820137  0.95311936  0.99149360    -0.20800
C898        C  0.04356072  0.92467768  0.96007478    -0.07400
C899        C  0.99029524  0.93437213  0.95166685     0.13500
C900        C  0.96437485  0.97419895  0.97287157    -0.20900
C901        C  0.98948465  0.00378843  0.00343430    -0.07400
C902        C  0.04257906  0.99342377  0.01218673     0.13500
C903        C  0.07356095  0.02642288  0.04133807    -0.24200
H904        H  0.10919399  0.94614634  0.99826985     0.14700
H905        H  0.92359916  0.98172299  0.96567128     0.14800
C906        C  0.96041019  0.90321708  0.92052145    -0.24200
H907        H  0.11554963  0.01500952  0.04221277     0.05000
H908        H  0.05817414  0.02231265  0.07274396     0.08200
H909        H  0.07115357  0.06771749  0.03156475     0.08200
H910        H  0.96351298  0.86127809  0.92821167     0.08200
H911        H  0.97599110  0.91026468  0.88928478     0.08200
H912        H  0.91822036  0.91388868  0.92000485     0.05000
C913        C  0.01092440  0.97100662  0.70202620    -0.20800
C914        C  0.00329121  0.02488488  0.70647562    -0.07400
C915        C  0.01916331  0.04856162  0.74354820     0.13500
C916        C  0.04694670  0.01957057  0.77271899    -0.20900
C917        C  0.05708015  0.96640763  0.76795732    -0.07400
C918        C  0.03756770  0.94137702  0.73252869     0.13500
C919        C  0.04806464  0.88464451  0.72545609    -0.24200
H920        H  0.99877799  0.95269746  0.67376436     0.14700
H921        H  0.06310733  0.03954833  0.79893561     0.14800
C922        C  0.00742451  0.10488215  0.75283061    -0.24200
H923        H  0.03146034  0.87152319  0.69579381     0.05000
H924        H  0.02999594  0.86133308  0.75036105     0.08200
H925        H  0.09094147  0.87726731  0.72501688     0.08200
H926        H  0.96494318  0.11276649  0.74866296     0.08200
H927        H  0.03043609  0.13092772  0.73267224     0.08200
H928        H  0.01766609  0.11485310  0.78495792     0.05000
C929        C  0.02529270  0.11488918  0.88217459    -0.20800
C930        C  0.04948880  0.16285090  0.88754534    -0.07400
C931        C  0.10313096  0.16429688  0.89869124     0.13500
C932        C  0.13123755  0.11761824  0.90338409    -0.20900
C933        C  0.10716938  0.06940898  0.89800597    -0.07400
C934        C  0.05321155  0.06822274  0.88734787     0.13500
C935        C  0.02353849  0.01904875  0.87993887    -0.24200
H936        H  0.98423038  0.11379819  0.87363840     0.14700
H937        H  0.17258971  0.11884758  0.91057668     0.14800
C938        C  0.13174922  0.21491738  0.90375102    -0.24200
H939        H  0.99092935  0.01698578  0.90204471     0.05000
H940        H  0.04826331  0.98395492  0.88259500     0.08200
H941        H  0.00549591  0.01960114  0.84907389     0.08200
H942        H  0.11465631  0.23731945  0.92944581     0.08200
H943        H  0.12900941  0.23800534  0.87497886     0.08200
H944        H  0.17391611  0.20868918  0.91072034     0.05000
C945        C  0.24483954  0.77990840  0.54206605    -0.20800
C946        C  0.29966435  0.77626861  0.53898142    -0.07400
C947        C  0.32223100  0.72638105  0.53313759     0.13500
C948        C  0.28994413  0.68215885  0.53271528    -0.20900
C949        C  0.23545135  0.68530742  0.53902090    -0.07400
C950        C  0.21262272  0.73558046  0.54282375     0.13500
C951        C  0.15460048  0.74365751  0.54872008    -0.24200
H952        H  0.22704791  0.81778835  0.54624051     0.14700
H953        H  0.30810825  0.64436840  0.52914154     0.14800
C954        C  0.38037541  0.71874795  0.52766565    -0.24200
H955        H  0.14385599  0.78548389  0.54908241     0.05000
H956        H  0.14220498  0.72686671  0.57855139     0.08200
H957        H  0.13259005  0.72546496  0.52326657     0.08200
H958        H  0.40127222  0.72793388  0.55654704     0.08200
H959        H  0.39480292  0.74404536  0.50257502     0.08200
H960        H  0.39034785  0.67802477  0.51969469     0.05000
C961        C  0.48483725  0.93984417  0.46196399    -0.20800
C962        C  0.49675867  0.93398993  0.50392036    -0.07400
C963        C  0.53755935  0.96400669  0.52085114     0.13500
C964        C  0.56167726  0.00184285  0.49648889    -0.20900
C965        C  0.54845558  0.00926778  0.45489057    -0.07400
C966        C  0.51045085  0.97639586  0.43712258     0.13500
C967        C  0.49635053  0.97911238  0.39228849    -0.24200
H968        H  0.45435235  0.91623050  0.44854993     0.14700
H969        H  0.59201408  0.02540360  0.51015257     0.14800
C970        C  0.55631730  0.95689816  0.56439714    -0.24200
H971        H  0.53128523  0.97009017  0.37337715     0.05000
H972        H  0.48114822  0.01843253  0.38464560     0.08200
H973        H  0.46554844  0.95070320  0.38411163     0.08200
H974        H  0.58931522  0.98310469  0.57191742     0.08200
H975        H  0.57007942  0.91634900  0.56907105     0.08200
H976        H  0.52429579  0.96551460  0.58604659     0.05000
C977        C  0.19812464  0.03512550  0.61471276    -0.20800
C978        C  0.21276650  0.00899912  0.57893138    -0.07400
C979        C  0.18511500  0.01953616  0.54206972     0.13500
C980        C  0.14197298  0.05352923  0.54272811    -0.20900
C981        C  0.12733218  0.08012171  0.57852967    -0.07400
C982        C  0.15701855  0.07143309  0.61495092     0.13500
C983        C  0.14654469  0.09962449  0.65453175    -0.24200
H984        H  0.22048113  0.02857045  0.64258323     0.14700
H985        H  0.12017698  0.06017367  0.51461644     0.14800
C986        C  0.20117647  0.99622864  0.50163280    -0.24200
H987        H  0.17482441  0.08847609  0.67901367    -0.01400
H988        H  0.10716967  0.08985070  0.66604778     0.08200
H989        H  0.15015905  0.14213834  0.64975453     0.08200
H990        H  0.20614740  0.95363700  0.50468244     0.08200
H991        H  0.23874023  0.01341555  0.49143759     0.08200
H992        H  0.17171798  0.00395023  0.47720450     0.05000
C993        C  0.33107742  0.82778610  0.73935454    -0.20800
C994        C  0.30878564  0.83075682  0.70017873    -0.07400
C995        C  0.25485361  0.82131512  0.69489490     0.13500
C996        C  0.22280291  0.81808102  0.72966282    -0.20900
C997        C  0.24423784  0.82481707  0.76881927    -0.07400
C998        C  0.29907893  0.82438618  0.77402171     0.13500
C999        C  0.32328944  0.82543787  0.81619745    -0.24200
H1000       H  0.37279792  0.83390860  0.74302809     0.14700
H1001       H  0.18060472  0.81756137  0.72597676     0.14800
C1002       C  0.23067181  0.81991181  0.65273510    -0.24200
H1003       H  0.36673685  0.82476972  0.81478010     0.05000
H1004       H  0.31033922  0.79092511  0.83395461     0.08200
H1005       H  0.31120414  0.86106587  0.83262574     0.08200
H1006       H  0.24918492  0.78837261  0.63470902     0.08200
H1007       H  0.23671539  0.85749170  0.63666536     0.08200
H1008       H  0.18790938  0.81248455  0.65411507     0.05000
C1009       C  0.42062830  0.11377437  0.59907728    -0.20800
C1010       C  0.41920697  0.08439885  0.56288007    -0.07400
C1011       C  0.44740828  0.10285123  0.52842540     0.13500
C1012       C  0.48076773  0.14605455  0.53274501    -0.20900
C1013       C  0.48546187  0.17224188  0.57033171    -0.07400
C1014       C  0.45299467  0.15706567  0.60331624     0.13500
C1015       C  0.45112649  0.18666760  0.64315452    -0.24200
H1016       H  0.39772278  0.10169168  0.62534185     0.14700
H1017       H  0.50308306  0.15961753  0.50659463     0.14800
C1018       C  0.44026443  0.07942810  0.48671722    -0.24200
H1019       H  0.42118209  0.17093511  0.66445082     0.05000
H1020       H  0.44105953  0.22795791  0.63703012     0.08200
H1021       H  0.48944889  0.18395557  0.65913334     0.08200
H1022       H  0.39839696  0.08183554  0.47764921     0.08200
H1023       H  0.45264555  0.03845278  0.48729063     0.08200
H1024       H  0.46376821  0.09976175  0.46298962     0.05000
C1025       C  0.81880108  0.19743520  0.91529198    -0.20800
C1026       C  0.81519863  0.25162973  0.91840267    -0.07400
C1027       C  0.76520170  0.27394763  0.92603527     0.13500
C1028       C  0.72053425  0.24193487  0.92779563    -0.20900
C1029       C  0.72355057  0.18802684  0.92118729    -0.07400
C1030       C  0.77419924  0.16550955  0.91591405     0.13500
C1031       C  0.78251335  0.10811539  0.90946582    -0.24200
H1032       H  0.85681224  0.17993190  0.90978631     0.14700
H1033       H  0.68254094  0.25975502  0.93264958     0.14800
C1034       C  0.75812365  0.33145453  0.93231952    -0.24200
H1035       H  0.82471309  0.09773535  0.90765015     0.05000
H1036       H  0.76431954  0.09608202  0.88010875     0.08200
H1037       H  0.76565718  0.08584134  0.93545017     0.08200
H1038       H  0.76620339  0.35279635  0.90340531     0.08200
H1039       H  0.78488852  0.34496019  0.95679837     0.08200
H1040       H  0.71748112  0.34132037  0.94166511     0.05000
C1041       C  0.52462755  0.02312182  0.98906136    -0.20800
C1042       C  0.55395147  0.99859654  0.95795188    -0.07400
C1043       C  0.54336256  0.94609799  0.94918480     0.13500
C1044       C  0.50298200  0.92060481  0.97036563    -0.20900
C1045       C  0.47421309  0.94509493  0.00174333    -0.07400
C1046       C  0.48445003  0.99763267  0.01031837     0.13500
C1047       C  0.45241381  0.02768713  0.04098019    -0.24200
H1048       H  0.53201928  0.06343708  0.99618076     0.14700
H1049       H  0.49584852  0.88007751  0.96378345     0.14800
C1050       C  0.57599547  0.91575535  0.91925034    -0.24200
H1051       H  0.45916205  0.01255140  0.07244936     0.05000
H1052       H  0.41021376  0.02481685  0.03308565     0.08200
H1053       H  0.46289285  0.06945978  0.04107030     0.08200
H1054       H  0.61791210  0.91773988  0.92817800     0.08200
H1055       H  0.57076422  0.93167354  0.88801096     0.08200
H1056       H  0.56464765  0.87422605  0.91842853     0.05000
C1057       C  0.37149419  0.98184875  0.88230809    -0.20800
C1058       C  0.32667138  0.99972245  0.90251824    -0.07400
C1059       C  0.32904780  0.04724131  0.92435350     0.13500
C1060       C  0.37495339  0.07717168  0.92263363    -0.20900
C1061       C  0.41869449  0.06006158  0.90071410    -0.07400
C1062       C  0.41773337  0.01065756  0.88208576     0.13500
C1063       C  0.46464053  0.98691992  0.86158999    -0.24200
H1064       H  0.37045864  0.94502456  0.86639124     0.14700
H1065       H  0.37636318  0.11454679  0.93764493     0.14800
C1066       C  0.28290406  0.06796942  0.94792979    -0.24200
H1067       H  0.47192443  0.94761909  0.87459228     0.05000
H1068       H  0.50070021  0.00960651  0.86641395     0.08200
H1069       H  0.45693390  0.98347455  0.82821239     0.08200
H1070       H  0.27281146  0.04074032  0.97317153     0.08200
H1071       H  0.24893937  0.07280772  0.92705853     0.08200
H1072       H  0.29128011  0.10629094  0.96182634     0.05000
C1073       C  0.67962204  0.23646005  0.77001520    -0.20800
C1074       C  0.67075479  0.18341020  0.76404026    -0.07400
C1075       C  0.67250356  0.16315397  0.72403023     0.13500
C1076       C  0.67155606  0.19748760  0.69054433    -0.20900
C1077       C  0.67096022  0.25123838  0.69678202    -0.07400
C1078       C  0.68036459  0.27079055  0.73639347     0.13500
C1079       C  0.68640158  0.32812913  0.74329355    -0.24200
H1080       H  0.67980406  0.25173026  0.80092316     0.14700
H1081       H  0.66583261  0.18251839  0.65986004     0.14800
C1082       C  0.67172419  0.10549477  0.71697987    -0.24200
H1083       H  0.69319525  0.33697150  0.77616546     0.05000
H1084       H  0.65065338  0.34919000  0.73307897     0.08200
H1085       H  0.72047070  0.34248653  0.72550998     0.08200
H1086       H  0.63696637  0.08798979  0.73156121     0.08200
H1087       H  0.70735112  0.08767473  0.73076937     0.08200
H1088       H  0.67099754  0.09606557  0.68379239     0.05000
C1089       C  0.44863245  0.35154710  0.91904510    -0.20800
C1090       C  0.41335604  0.36220294  0.88680794    -0.07400
C1091       C  0.41199913  0.32729036  0.85301463     0.13500
C1092       C  0.44732795  0.28540955  0.85176610    -0.20900
C1093       C  0.48291416  0.27558035  0.88360906    -0.07400
C1094       C  0.48268235  0.30838180  0.91820786     0.13500
C1095       C  0.51893134  0.29872318  0.95398140    -0.24200
H1096       H  0.44986173  0.37726136  0.94507678     0.14700
H1097       H  0.44634797  0.25916693  0.82591470     0.14800
C1098       C  0.37449559  0.33345442  0.81741318    -0.24200
H1099       H  0.51456317  0.32889686  0.97769002     0.05000
H1100       H  0.56023045  0.29854636  0.94339479     0.08200
H1101       H  0.50967066  0.26115581  0.96897317     0.08200
H1102       H  0.38250440  0.37008078  0.80056185     0.08200
H1103       H  0.33350614  0.33304842  0.82869064     0.08200
H1104       H  0.37839828  0.30142856  0.79496152     0.05000
C1105       C  0.53949996  0.03630601  0.72202643    -0.20800
C1106       C  0.54763016  0.00797753  0.75814761    -0.07400
C1107       C  0.53529280  0.95452236  0.75865299     0.13500
C1108       C  0.50922530  0.93268984  0.72460157    -0.20900
C1109       C  0.49646404  0.96296986  0.68981620    -0.07400
C1110       C  0.51594108  0.01434747  0.68762635     0.13500
C1111       C  0.51131233  0.04868635  0.65037098    -0.24200
H1112       H  0.54899903  0.07726926  0.72125901     0.14700
H1113       H  0.49580526  0.89291923  0.72647272     0.14800
C1114       C  0.54715312  0.92034697  0.79497027    -0.24200
H1115       H  0.48843044  0.08354425  0.65882826     0.05000
H1116       H  0.49238305  0.03001621  0.62390912     0.08200
H1117       H  0.55093519  0.06103949  0.64045292     0.08200
H1118       H  0.51027139  0.90450190  0.80776190     0.08200
H1119       H  0.56810973  0.94168821  0.81923961     0.08200
H1120       H  0.57252147  0.88756469  0.78524023     0.05000
loop_ 
_geom_bond_atom_site_label_1 
_geom_bond_atom_site_label_2 
_geom_bond_distance 
_geom_bond_site_symmetry_2 
_ccdc_geom_bond_type 
O1          Cr19   1.980       .  S
O1            C9   1.263       .  A
O2          Cr19   1.981       .  S
O2            C3   1.255       .  A
C3            O4   1.263       .  A
C3         C1042   1.496   1_545  S
O4          Cr20   2.017       .  S
O5          Cr20   2.020       .  S
O5            C6   1.262       .  A
C6            O7   1.253       .  A
C6         C1106   1.483       .  S
O7          Cr21   1.965       .  S
O8          Cr21   2.014       .  S
O8            C9   1.272       .  A
C9         C1061   1.474       .  S
O10         Cr19   1.988       .  S
O10          C18   1.253       .  A
O11         Cr19   2.003       .  S
O11          C12   1.272       .  A
C12          O13   1.272       .  A
C12        C1029   1.509       .  S
O13         Cr20   2.022       .  S
O14         Cr20   1.986       .  S
O14          C15   1.264       .  A
C15          O16   1.271       .  A
C15        C1074   1.468       .  S
O16         Cr21   1.998       .  S
O17         Cr21   1.983       .  S
O17          C18   1.256       .  A
C18        C1093   1.485       .  S
Cr19         O22   1.784       .  S
Cr20         O22   1.789       .  S
Cr21         O22   1.767       .  S
O23         Cr41   2.007       .  S
O23          C31   1.270   1_565  A
O24         Cr41   1.978       .  S
O24          C25   1.254       .  A
C25          O26   1.258       .  A
C25         C962   1.486       .  S
O26         Cr42   1.994       .  S
O27         Cr42   2.033       .  S
O27          C28   1.269       .  A
C28          O29   1.256       .  A
C28        C1109   1.493       .  S
O29         Cr43   1.964       .  S
O30         Cr43   2.002   1_545  S
O30          C31   1.269       .  A
C31        C1010   1.498       .  S
O32         Cr41   1.991       .  S
O32          C40   1.257       .  A
O33         Cr41   1.995       .  S
O33          C34   1.272       .  A
C34          O35   1.275       .  A
C34         C946   1.504       .  S
O35         Cr42   2.030       .  S
O36         Cr42   1.973       .  S
O36          C37   1.258       .  A
C37          O38   1.267       .  A
C37         C994   1.462       .  S
O38         Cr43   1.996       .  S
O39         Cr43   1.980       .  S
O39          C40   1.260       .  A
C40         C978   1.483   1_565  S
Cr41         O44   1.774       .  S
Cr42         O44   1.782       .  S
Cr43         O44   1.759       .  S
O45         Cr63   2.003       .  S
O45          C53   1.271   1_565  A
O46         Cr63   1.970       .  S
O46          C47   1.244       .  A
C47          O48   1.257       .  A
C47         C898   1.489       .  S
O48         Cr64   2.020       .  S
O49         Cr64   2.032       .  S
O49          C50   1.269       .  A
C50          O51   1.255       .  A
C50         C917   1.494       .  S
O51         Cr65   1.955       .  S
O52         Cr65   2.014   1_545  S
O52          C53   1.273       .  A
C53         C933   1.484       .  S
O54         Cr63   1.998       .  S
O54          C62   1.252       .  A
O55         Cr63   1.998       .  S
O55          C56   1.277       .  A
C56          O57   1.285       .  A
C56         C885   1.510       .  S
O57         Cr64   2.041       .  S
O58         Cr64   1.985       .  S
O58          C59   1.261       .  A
C59          O60   1.263       .  A
C59         C997   1.461       .  S
O60         Cr65   1.971       .  S
O61         Cr65   1.979       .  S
O61          C62   1.252       .  A
C62        C1058   1.483       .  S
Cr63         O66   1.779       .  S
Cr64         O66   1.786       .  S
Cr65         O66   1.761       .  S
O67         Cr85   1.982   1_455  S
O67          C75   1.273       .  A
O68         Cr85   1.977       .  S
O68          C69   1.248       .  A
C69          O70   1.258       .  A
C69         C834   1.489       .  S
O70         Cr86   2.009       .  S
O71         Cr86   2.022       .  S
O71          C72   1.264       .  A
C72          O73   1.252   1_655  A
C72         C914   1.491   1_655  S
O73         Cr87   1.953       .  S
O74         Cr87   2.017       .  S
O74          C75   1.276       .  A
C75         C981   1.494       .  S
O76         Cr85   1.994   1_455  S
O76          C84   1.251       .  A
O77         Cr85   1.992       .  S
O77          C78   1.277       .  A
C78          O79   1.278       .  A
C78         C818   1.505       .  S
O79         Cr86   2.030       .  S
O80         Cr86   1.989       .  S
O80          C81   1.263       .  A
C81          O82   1.266       .  A
C81         C866   1.466       .  S
O82         Cr87   1.977   1_655  S
O83         Cr87   1.978   1_655  S
O83          C84   1.249   1_655  A
C84         C850   1.485       .  S
Cr85         O88   1.782       .  S
Cr86         O88   1.785       .  S
Cr87         O88   1.760   1_455  S
O89        Cr107   2.006       .  S
O89          C97   1.270       .  A
O90        Cr107   1.973       .  S
O90          C91   1.251       .  A
C91          O92   1.258       .  A
C91         C754   1.491       .  S
O92        Cr108   2.009       .  S
O93        Cr108   2.037       .  S
O93          C94   1.269       .  A
C94          O95   1.256       .  A
C94         C802   1.492       .  S
O95        Cr109   1.969       .  S
O96        Cr109   2.000       .  S
O96          C97   1.265       .  A
C97        C1090   1.500       .  S
O98        Cr107   1.989       .  S
O98         C106   1.257       .  A
O99        Cr107   1.989       .  S
O99         C100   1.271       .  A
C100        O101   1.280       .  A
C100        C882   1.509       .  S
O101       Cr108   2.041       .  S
O102       Cr108   1.981       .  S
O102        C103   1.260       .  A
C103        O104   1.266       .  A
C103        C770   1.464       .  S
O104       Cr109   1.990       .  S
O105       Cr109   1.988       .  S
O105        C106   1.261       .  A
C106        C786   1.484       .  S
Cr107       O110   1.774       .  S
Cr108       O110   1.781       .  S
Cr109       O110   1.759       .  S
O111       Cr129   1.992       .  S
O111        C119   1.268       .  A
O112       Cr129   1.974       .  S
O112        C113   1.248       .  A
C113        O114   1.261       .  A
C113        C722   1.488       .  S
O114       Cr130   2.016       .  S
O115       Cr130   2.014       .  S
O115        C116   1.263       .  A
C116        O117   1.255       .  A
C116        C805   1.482       .  S
O117       Cr131   1.971       .  S
O118       Cr131   2.008       .  S
O118        C119   1.273       .  A
C119        C738   1.484       .  S
O120       Cr129   2.004       .  S
O120        C128   1.255       .  A
O121       Cr129   1.998       .  S
O121        C122   1.276       .  A
C122        O123   1.275       .  A
C122        C821   1.502       .  S
O123       Cr130   2.026       .  S
O124       Cr130   1.991       .  S
O124        C125   1.264       .  A
C125        O126   1.266       .  A
C125       C1077   1.468       .  S
O126       Cr131   1.984       .  S
O127       Cr131   1.977       .  S
O127        C128   1.253       .  A
C128       C1013   1.487       .  S
Cr129       O132   1.787       .  S
Cr130       O132   1.784       .  S
Cr131       O132   1.762       .  S
O133       Cr151   1.988   1_455  S
O133        C141   1.276       .  A
O134       Cr151   1.962       .  S
O134        C135   1.237       .  A
C135        O136   1.253       .  A
C135        C690   1.500       .  S
O136       Cr152   2.028       .  S
O137       Cr152   2.002       .  S
O137        C138   1.261       .  A
C138        O139   1.256       .  A
C138        C706   1.485       .  S
O139       Cr153   1.973       .  S
O140       Cr153   2.018   1_455  S
O140        C141   1.279       .  A
C141        C789   1.495       .  S
O142       Cr151   1.980   1_455  S
O142        C150   1.244       .  A
O143       Cr151   1.991       .  S
O143        C144   1.280       .  A
C144        O145   1.285       .  A
C144       C1026   1.503       .  S
O145       Cr152   2.046       .  S
O146       Cr152   2.003       .  S
O146        C147   1.267       .  A
C147        O148   1.264       .  A
C147        C869   1.468       .  S
O148       Cr153   1.966       .  S
O149       Cr153   1.995       .  S
O149        C150   1.250   1_655  A
C150        C930   1.479       .  S
Cr151       O154   1.779       .  S
Cr152       O154   1.784       .  S
Cr153       O154   1.762       .  S
O155       Cr173   1.988       .  S
O155        C163   1.265       .  A
O156       Cr173   1.982       .  S
O156        C157   1.255       .  A
C157        O158   1.259       .  A
C157        C677   1.493       .  S
O158       Cr174   2.003       .  S
O159       Cr174   2.036       .  S
O159        C160   1.269       .  A
C160        O161   1.254       .  A
C160        C709   1.491       .  S
O161       Cr175   1.967       .  S
O162       Cr175   2.007       .  S
O162        C163   1.271       .  A
C163        C853   1.490       .  S
O164       Cr173   2.005       .  S
O164        C172   1.260       .  A
O165       Cr173   1.992       .  S
O165        C166   1.272       .  A
C166        O167   1.277       .  A
C166        C949   1.510       .  S
O167       Cr174   2.033       .  S
O168       Cr174   1.977       .  S
O168        C169   1.258       .  A
C169        O170   1.269       .  A
C169        C773   1.465       .  S
O170       Cr175   1.996       .  S
O171       Cr175   1.983       .  S
O171        C172   1.256       .  A
C172        C741   1.498       .  S
Cr173       O176   1.778       .  S
Cr174       O176   1.783       .  S
Cr175       O176   1.758       .  S
O177       Cr195   2.005       .  S
O177        C185   1.271       .  A
O178       Cr195   1.958       .  S
O178        C179   1.252       .  A
C179        O180   1.268       .  A
C179        C661   1.494       .  S
O180       Cr196   2.038       .  S
O181       Cr196   2.015       .  S
O181        C182   1.262       .  A
C182        O183   1.249       .  A
C182        C725   1.488       .  S
O183       Cr197   1.973       .  S
O184       Cr197   1.977       .  S
O184        C185   1.265       .  A
C185        C610   1.474       .  S
O186       Cr195   1.983       .  S
O186        C194   1.256       .  A
O187       Cr195   1.984       .  S
O187        C188   1.266       .  A
C188        O189   1.260       .  A
C188        C642   1.458       .  S
O189       Cr196   1.976       .  S
O190       Cr196   2.036       .  S
O190        C191   1.281       .  A
C191        O192   1.268       .  A
C191        C594   1.494       .  S
O192       Cr197   1.972       .  S
O193       Cr197   1.994       .  S
O193        C194   1.255       .  A
C194        C626   1.482       .  S
Cr195       O198   1.755       .  S
Cr196       O198   1.783       .  S
Cr197       O198   1.780       .  S
O199       Cr217   2.023       .  S
O199        C207   1.276       .  A
O200       Cr217   1.961       .  S
O200        C201   1.258       .  A
C201        O202   1.268       .  A
C201        C658   1.505       .  S
O202       Cr218   2.032       .  S
O203       Cr218   2.012       .  S
O203        C204   1.254       .  A
C204        O205   1.244       .  A
C204        C757   1.490       .  S
O205       Cr219   1.968       .  S
O206       Cr219   1.989       .  S
O206        C207   1.268       .  A
C207        C581   1.479       .  S
O208       Cr217   1.986       .  S
O208        C216   1.252       .  A
O209       Cr217   1.978       .  S
O209        C210   1.264       .  A
C210        O211   1.261       .  A
C210        C565   1.462       .  S
O211       Cr218   1.980       .  S
O212       Cr218   2.050       .  S
O212        C213   1.286       .  A
C213        O214   1.275       .  A
C213        C530   1.506       .  S
O214       Cr219   1.990       .  S
O215       Cr219   1.987       .  S
O215        C216   1.249       .  A
C216        C546   1.477       .  S
Cr217       O220   1.762       .  S
Cr218       O220   1.788       .  S
Cr219       O220   1.783       .  S
O221       Cr239   1.996       .  S
O221        C229   1.258       .  A
O222       Cr239   1.956       .  S
O222        C223   1.253   1_565  A
C223        O224   1.271       .  A
C223        C514   1.496   1_545  S
O224       Cr240   2.053       .  S
O225       Cr240   2.009       .  S
O225        C226   1.259       .  A
C226        O227   1.250       .  A
C226        C965   1.488       .  S
O227       Cr241   1.966       .  S
O228       Cr241   2.013   1_565  S
O228        C229   1.269       .  A
C229        C629   1.495       .  S
O230       Cr239   1.971       .  S
O230        C238   1.257       .  A
O231       Cr239   1.991   1_545  S
O231        C232   1.266       .  A
C232        O233   1.258       .  A
C232        C501   1.458       .  S
O233       Cr240   1.973       .  S
O234       Cr240   2.044       .  S
O234        C235   1.283       .  A
C235        O236   1.270       .  A
C235        C466   1.509       .  S
O236       Cr241   1.987       .  S
O237       Cr241   1.995   1_565  S
O237        C238   1.260       .  A
C238        C485   1.472       .  S
Cr239       O242   1.746   1_565  S
Cr240       O242   1.781       .  S
Cr241       O242   1.773       .  S
O243       Cr261   2.028       .  S
O243        C251   1.280       .  A
O244       Cr261   1.953       .  S
O244        C245   1.252       .  A
C245        O246   1.269       .  A
C245        C517   1.508       .  S
O246       Cr262   2.035       .  S
O247       Cr262   2.006       .  S
O247        C248   1.252       .  A
C248        O249   1.245       .  A
C248       C1045   1.490       .  S
O249       Cr263   1.972       .  S
O250       Cr263   1.982       .  S
O250        C251   1.269       .  A
C251        C450   1.475       .  S
O252       Cr261   1.982       .  S
O252        C260   1.247       .  A
O253       Cr261   1.966       .  S
O253        C254   1.262       .  A
C254        O255   1.261       .  A
C254        C645   1.460       .  S
O255       Cr262   1.982       .  S
O256       Cr262   2.050       .  S
O256        C257   1.287       .  A
C257        O258   1.280       .  A
C257        C434   1.512       .  S
O258       Cr263   1.990       .  S
O259       Cr263   2.000       .  S
O259        C260   1.249       .  A
C260        C578   1.482       .  S
Cr261       O264   1.758       .  S
Cr262       O264   1.785       .  S
Cr263       O264   1.783       .  S
O265       Cr283   2.014   1_655  S
O265        C273   1.274       .  A
O266       Cr283   1.959       .  S
O266        C267   1.257       .  A
C267        O268   1.267       .  A
C267        C418   1.512       .  S
O268       Cr284   2.034       .  S
O269       Cr284   2.028       .  S
O269        C270   1.262       .  A
C270        O271   1.245       .  A
C270        C693   1.504   1_554  S
O271       Cr285   1.973       .  S
O272       Cr285   1.985       .  S
O272        C273   1.267   1_455  A
C273        C549   1.471       .  S
O274       Cr283   1.982       .  S
O274        C282   1.252       .  A
O275       Cr283   1.973       .  S
O275        C276   1.263       .  A
C276        O277   1.264       .  A
C276        C402   1.466       .  S
O277       Cr284   1.993       .  S
O278       Cr284   2.044       .  S
O278        C279   1.282       .  A
C279        O280   1.276       .  A
C279        C437   1.506       .  S
O280       Cr285   1.993       .  S
O281       Cr285   1.999       .  S
O281        C282   1.252       .  A
C282        C389   1.483   1_455  S
Cr283       O286   1.762       .  S
Cr284       O286   1.786       .  S
Cr285       O286   1.786       .  S
O287       Cr305   1.995       .  S
O287        C295   1.263       .  A
O288       Cr305   1.965       .  S
O288        C289   1.253       .  A
C289        O290   1.269       .  A
C289        C421   1.492       .  S
O290       Cr306   2.044       .  S
O291       Cr306   2.010       .  S
O291        C292   1.260       .  A
C292        O293   1.254       .  A
C292        C674   1.491       .  S
O293       Cr307   1.975       .  S
O294       Cr307   1.997       .  S
O294        C295   1.268       .  A
C295        C373   1.490       .  S
O296       Cr305   1.981       .  S
O296        C304   1.258       .  A
O297       Cr305   1.987       .  S
O297        C298   1.266       .  A
C298        O299   1.259       .  A
C298        C562   1.457       .  S
O299       Cr306   1.975       .  S
O300       Cr306   2.040       .  S
O300        C301   1.281       .  A
C301        O302   1.268       .  A
C301        C469   1.508       .  S
O302       Cr307   1.985       .  S
O303       Cr307   1.990       .  S
O303        C304   1.260       .  A
C304        C613   1.489       .  S
Cr305       O308   1.751       .  S
Cr306       O308   1.781       .  S
Cr307       O308   1.773       .  S
O309       Cr327   1.993   1_655  S
O309        C317   1.265       .  A
O310       Cr327   1.983       .  S
O310        C311   1.260       .  A
C311        O312   1.267       .  A
C311        C357   1.494       .  S
O312       Cr328   2.026       .  S
O313       Cr328   2.012       .  S
O313        C314   1.263       .  A
C314        O315   1.252       .  A
C314        C837   1.491       .  S
O315       Cr329   1.977       .  S
O316       Cr329   1.989   1_655  S
O316        C317   1.264       .  A
C317        C482   1.482       .  S
O318       Cr327   1.983       .  S
O318        C326   1.262       .  A
O319       Cr327   1.994       .  S
O319        C320   1.266       .  A
C320        O321   1.263       .  A
C320        C405   1.468       .  S
O321       Cr328   1.989       .  S
O322       Cr328   2.025       .  S
O322        C323   1.276       .  A
C323        O324   1.266       .  A
C323        C597   1.499       .  S
O324       Cr329   1.981       .  S
O325       Cr329   1.987       .  S
O325        C326   1.257       .  A
C326        C370   1.478   1_455  S
Cr327       O330   1.757       .  S
Cr328       O330   1.774       .  S
Cr329       O330   1.776       .  S
O331       Cr349   2.017       .  S
O331        C339   1.273       .  A
O332       Cr349   1.977       .  S
O332        C333   1.256   1_565  A
C333        O334   1.264       .  A
C333        C354   1.489   1_545  S
O334       Cr350   2.022       .  S
O335       Cr350   2.012       .  S
O335        C336   1.259       .  A
C336        O337   1.251       .  A
C336        C901   1.492       .  S
O337       Cr351   1.974       .  S
O338       Cr351   1.981   1_565  S
O338        C339   1.264       .  A
C339        C386   1.475       .  S
O340       Cr349   1.992       .  S
O340        C348   1.255       .  A
O341       Cr349   1.987   1_545  S
O341        C342   1.268       .  A
C342        O343   1.261       .  A
C342        C498   1.457       .  S
O343       Cr350   1.974       .  S
O344       Cr350   2.036       .  S
O344        C345   1.278       .  A
C345        O346   1.271       .  A
C345        C533   1.513       .  S
O346       Cr351   1.997       .  S
O347       Cr351   1.978   1_565  S
O347        C348   1.250       .  A
C348        C453   1.476       .  S
Cr349       O352   1.769   1_565  S
Cr350       O352   1.791       .  S
Cr351       O352   1.785       .  S
C353        C354   1.403       .  A
C353        C358   1.405       .  A
C353        H360   1.085   1_565  S
C354        C355   1.417   1_655  A
C355        C356   1.411       .  A
C355        C362   1.500       .  S
C356        C357   1.405       .  A
C356        H361   1.083       .  S
C357        C358   1.414   1_455  A
C358        C359   1.502       .  S
C359        H363   1.111       .  S
C359        H364   1.109       .  S
C359        H365   1.097       .  S
C362        H366   1.104   1_565  S
C362        H367   1.109       .  S
C362        H368   1.110   1_565  S
C369        C370   1.398       .  A
C369        C374   1.399       .  A
C369        H376   1.085       .  S
C370        C371   1.416       .  A
C371        C372   1.406       .  A
C371        C378   1.508   1_655  S
C372        C373   1.406       .  A
C372        H377   1.084       .  S
C373        C374   1.425       .  A
C374        C375   1.511       .  S
C375        H379   1.111       .  S
C375        H380   1.110       .  S
C375        H381   1.105       .  S
C378        H382   1.109       .  S
C378        H383   1.109       .  S
C378        H384   1.109       .  S
C385        C386   1.399       .  A
C385        C390   1.409       .  A
C385        H392   1.083       .  S
C386        C387   1.413       .  A
C387        C388   1.400   1_655  A
C387        C394   1.499   1_655  S
C388        C389   1.398   1_455  A
C388        H393   1.085       .  S
C389        C390   1.421       .  A
C390        C391   1.506       .  S
C391        H395   1.111       .  S
C391        H396   1.109       .  S
C391        H397   1.110   1_554  S
C394        H398   1.109       .  S
C394        H399   1.106   1_455  S
C394        H400   1.110       .  S
C401        C402   1.402       .  A
C401        C406   1.403       .  A
C401        H408   1.085       .  S
C402        C403   1.410       .  A
C403        C404   1.402       .  A
C403        C410   1.506       .  S
C404        C405   1.401       .  A
C404        H409   1.085       .  S
C405        C406   1.410       .  A
C406        C407   1.504       .  S
C407        H411   1.111       .  S
C407        H412   1.110       .  S
C407        H413   1.109       .  S
C410        H414   1.110       .  S
C410        H415   1.110       .  S
C410        H416   1.111       .  S
C417        C418   1.409   1_655  A
C417        C422   1.397       .  A
C417        H424   1.083       .  S
C418        C419   1.430       .  A
C419        C420   1.422       .  A
C419        C426   1.507       .  S
C420        C421   1.406   1_455  A
C420        H425   1.084       .  S
C421        C422   1.413       .  A
C422        C423   1.512       .  S
C423        H427   1.111       .  S
C423        H428   1.108       .  S
C423        H429   1.107       .  S
C426        H430   1.101       .  S
C426        H431   1.110       .  S
C426        H432   1.110       .  S
C433        C434   1.411       .  A
C433        C438   1.413       .  A
C433        H440   1.084       .  S
C434        C435   1.424       .  A
C435        C436   1.412       .  A
C435        C442   1.508       .  S
C436        C437   1.406       .  A
C436        H441   1.084       .  S
C437        C438   1.420       .  A
C438        C439   1.508       .  S
C439        H443   1.111       .  S
C439        H444   1.108       .  S
C439        H445   1.109       .  S
C442        H446   1.110       .  S
C442        H447   1.110       .  S
C442        H448   1.111       .  S
C449        C450   1.397       .  A
C449        C454   1.402       .  A
C449        H456   1.081       .  S
C450        C451   1.419       .  A
C451        C452   1.403       .  A
C451        C458   1.503       .  S
C452        C453   1.398       .  A
C452        H457   1.085       .  S
C453        C454   1.418       .  A
C454        C455   1.507       .  S
C455        H459   1.111       .  S
C455        H460   1.109       .  S
C455        H461   1.109       .  S
C458        H462   1.103       .  S
C458        H463   1.109       .  S
C458        H464   1.109       .  S
C465        C466   1.406       .  A
C465        C470   1.411       .  A
C465        H472   1.084       .  S
C466        C467   1.424       .  A
C467        C468   1.413       .  A
C467        C474   1.509       .  S
C468        C469   1.407       .  A
C468        H473   1.084       .  S
C469        C470   1.424       .  A
C470        C471   1.509       .  S
C471        H475   1.110       .  S
C471        H476   1.110       .  S
C471        H477   1.107       .  S
C474        H478   1.108       .  S
C474        H479   1.107       .  S
C474        H480   1.110       .  S
C481        C482   1.406       .  A
C481        C486   1.395       .  A
C481        H488   1.084       .  S
C482        C483   1.414       .  A
C483        C484   1.405       .  A
C483        C490   1.506       .  S
C484        C485   1.406       .  A
C484        H489   1.084       .  S
C485        C486   1.413       .  A
C486        C487   1.511       .  S
C487        H491   1.111       .  S
C487        H492   1.110       .  S
C487        H493   1.110       .  S
C490        H494   1.103       .  S
C490        H495   1.110       .  S
C490        H496   1.111       .  S
C497        C498   1.399       .  A
C497        C502   1.398       .  A
C497        H504   1.085       .  S
C498        C499   1.408       .  A
C499        C500   1.400       .  A
C499        C506   1.506       .  S
C500        C501   1.401       .  A
C500        H505   1.084       .  S
C501        C502   1.409       .  A
C502        C503   1.506       .  S
C503        H507   1.111       .  S
C503        H508   1.107       .  S
C503        H509   1.110       .  S
C506        H510   1.110       .  S
C506        H511   1.111       .  S
C506        H512   1.111       .  S
C513        C514   1.400       .  A
C513        C518   1.396       .  A
C513        H520   1.085       .  S
C514        C515   1.414       .  A
C515        C516   1.424       .  A
C515        C522   1.502   1_565  S
C516        C517   1.415       .  A
C516        H521   1.083       .  S
C517        C518   1.427       .  A
C518        C519   1.514       .  S
C519        H523   1.111       .  S
C519        H524   1.105       .  S
C519        H525   1.110       .  S
C522        H526   1.110       .  S
C522        H527   1.109       .  S
C522        H528   1.111       .  S
C529        C530   1.407       .  A
C529        C534   1.413       .  A
C529        H536   1.084       .  S
C530        C531   1.420       .  A
C531        C532   1.413       .  A
C531        C538   1.509       .  S
C532        C533   1.411       .  A
C532        H537   1.083       .  S
C533        C534   1.424       .  A
C534        C535   1.508       .  S
C535        H539   1.111       .  S
C535        H540   1.109       .  S
C535        H541   1.109       .  S
C538        H542   1.111       .  S
C538        H543   1.108       .  S
C538        H544   1.111       .  S
C545        C546   1.397       .  A
C545        C550   1.399       .  A
C545        H552   1.085       .  S
C546        C547   1.419       .  A
C547        C548   1.404       .  A
C547        C554   1.505       .  S
C548        C549   1.397       .  A
C548        H553   1.083       .  S
C549        C550   1.417       .  A
C550        C551   1.502       .  S
C551        H555   1.104       .  S
C551        H556   1.103       .  S
C551        H557   1.105   1_655  S
C554        H558   1.108       .  S
C554        H559   1.110   1_554  S
C554        H560   1.111       .  S
C561        C562   1.399       .  A
C561        C566   1.399       .  A
C561        H568   1.085       .  S
C562        C563   1.410       .  A
C563        C564   1.399       .  A
C563        C570   1.506       .  S
C564        C565   1.400       .  A
C564        H569   1.085       .  S
C565        C566   1.410       .  A
C566        C567   1.503       .  S
C567        H571   1.111       .  S
C567        H572   1.110       .  S
C567        H573   1.110       .  S
C570        H574   1.110       .  S
C570        H575   1.110       .  S
C570        H576   1.110       .  S
C577        C578   1.400       .  A
C577        C582   1.403       .  A
C577        H584   1.085       .  S
C578        C579   1.418       .  A
C579        C580   1.405       .  A
C579        C586   1.505       .  S
C580        C581   1.399       .  A
C580        H585   1.081       .  S
C581        C582   1.418       .  A
C582        C583   1.503       .  S
C583        H587   1.108       .  S
C583        H588   1.107       .  S
C583        H589   1.105       .  S
C586        H590   1.109       .  S
C586        H591   1.109       .  S
C586        H592   1.111       .  S
C593        C594   1.405       .  A
C593        C598   1.409       .  A
C593        H600   1.084       .  S
C594        C595   1.420       .  A
C595        C596   1.404       .  A
C595        C602   1.510       .  S
C596        C597   1.406       .  A
C596        H601   1.083       .  S
C597        C598   1.422       .  A
C598        C599   1.508       .  S
C599        H603   1.111       .  S
C599        H604   1.110       .  S
C599        H605   1.108       .  S
C602        H606   1.110       .  S
C602        H607   1.106       .  S
C602        H608   1.111       .  S
C609        C610   1.405       .  A
C609        C614   1.401       .  A
C609        H616   1.081       .  S
C610        C611   1.409       .  A
C611        C612   1.401       .  A
C611        C618   1.508       .  S
C612        C613   1.412       .  A
C612        H617   1.084       .  S
C613        C614   1.417       .  A
C614        C615   1.510       .  S
C615        H619   1.111       .  S
C615        H620   1.111       .  S
C615        H621   1.110       .  S
C618        H622   1.106       .  S
C618        H623   1.111       .  S
C618        H624   1.110       .  S
C625        C626   1.397       .  A
C625        C630   1.401       .  A
C625        H632   1.086       .  S
C626        C627   1.414       .  A
C627        C628   1.408       .  A
C627        C634   1.507       .  S
C628        C629   1.408       .  A
C628        H633   1.083       .  S
C629        C630   1.433       .  A
C630        C631   1.516       .  S
C631        H635   1.111       .  S
C631        H636   1.095       .  S
C631        H637   1.110       .  S
C634        H638   1.108       .  S
C634        H639   1.109       .  S
C634        H640   1.109       .  S
C641        C642   1.400       .  A
C641        C646   1.399       .  A
C641        H648   1.084       .  S
C642        C643   1.408       .  A
C643        C644   1.399       .  A
C643        C650   1.506       .  S
C644        C645   1.401       .  A
C644        H649   1.085       .  S
C645        C646   1.410       .  A
C646        C647   1.507       .  S
C647        H651   1.111       .  S
C647        H652   1.110       .  S
C647        H653   1.111       .  S
C650        H654   1.110       .  S
C650        H655   1.110       .  S
C650        H656   1.111       .  S
C657        C658   1.405       .  A
C657        C662   1.397       .  A
C657        H664   1.084       .  S
C658        C659   1.421       .  A
C659        C660   1.422       .  A
C659        C666   1.503       .  S
C660        C661   1.408       .  A
C660        H665   1.083       .  S
C661        C662   1.417       .  A
C662        C663   1.513       .  S
C663        H667   1.111       .  S
C663        H668   1.110       .  S
C663        H669   1.108       .  S
C666        H670   1.105       .  S
C666        H671   1.110       .  S
C666        H672   1.111       .  S
C673        C674   1.407       .  A
C673        C678   1.404   1_655  A
C673        H680   1.084       .  S
C674        C675   1.418   1_655  A
C675        C676   1.407       .  A
C675        C682   1.508       .  S
C676        C677   1.408       .  A
C676        H681   1.084       .  S
C677        C678   1.418       .  A
C678        C679   1.506       .  S
C679        H683   1.111   1_455  S
C679        H684   1.110   1_455  S
C679        H685   1.109       .  S
C682        H686   1.110   1_455  S
C682        H687   1.110       .  S
C682        H688   1.111       .  S
C689        C690   1.402   1_455  A
C689        C694   1.409       .  A
C689        H696   1.083   1_455  S
C690        C691   1.426   1_655  A
C691        C692   1.408   1_556  A
C691        C698   1.511   1_456  S
C692        C693   1.400   1_554  A
C692        H697   1.083       .  S
C693        C694   1.427       .  A
C694        C695   1.509       .  S
C695        H699   1.111       .  S
C695        H700   1.109       .  S
C695        H701   1.109       .  S
C698        H702   1.110   1_554  S
C698        H703   1.111       .  S
C698        H704   1.111   1_655  S
C705        C706   1.404   1_455  A
C705        C710   1.413       .  A
C705        H712   1.084       .  S
C706        C707   1.413       .  A
C707        C708   1.404   1_655  A
C707        C714   1.508       .  S
C708        C709   1.405       .  A
C708        H713   1.082       .  S
C709        C710   1.416       .  A
C710        C711   1.501       .  S
C711        H715   1.111       .  S
C711        H716   1.110       .  S
C711        H717   1.110       .  S
C714        H718   1.110       .  S
C714        H719   1.108       .  S
C714        H720   1.111       .  S
C721        C722   1.404       .  A
C721        C726   1.405       .  A
C721        H728   1.083       .  S
C722        C723   1.420       .  A
C723        C724   1.404       .  A
C723        C730   1.509       .  S
C724        C725   1.403       .  A
C724        H729   1.084       .  S
C725        C726   1.421       .  A
C726        C727   1.509       .  S
C727        H731   1.111       .  S
C727        H732   1.109       .  S
C727        H733   1.109       .  S
C730        H734   1.109       .  S
C730        H735   1.109       .  S
C730        H736   1.111       .  S
C737        C738   1.403       .  A
C737        C742   1.402       .  A
C737        H744   1.083       .  S
C738        C739   1.410       .  A
C739        C740   1.410       .  A
C739        C746   1.506       .  S
C740        C741   1.414       .  A
C740        H745   1.084       .  S
C741        C742   1.420       .  A
C742        C743   1.510       .  S
C743        H747   1.111       .  S
C743        H748   1.110       .  S
C743        H749   1.110       .  S
C746        H750   1.110       .  S
C746        H751   1.109       .  S
C746        H752   1.111       .  S
C753        C754   1.413       .  A
C753        C758   1.404   1_556  A
C753        H760   1.083       .  S
C754        C755   1.412       .  A
C755        C756   1.404       .  A
C755        C762   1.508       .  S
C756        C757   1.412   1_556  A
C756        H761   1.083       .  S
C757        C758   1.409       .  A
C758        C759   1.508       .  S
C759        H763   1.111       .  S
C759        H764   1.109       .  S
C759        H765   1.110       .  S
C762        H766   1.110       .  S
C762        H767   1.108       .  S
C762        H768   1.111       .  S
C769        C770   1.403       .  A
C769        C774   1.405       .  A
C769        H776   1.084       .  S
C770        C771   1.410       .  A
C771        C772   1.396       .  A
C771        C778   1.503       .  S
C772        C773   1.398       .  A
C772        H777   1.085       .  S
C773        C774   1.408       .  A
C774        C775   1.502       .  S
C775        H779   1.111       .  S
C775        H780   1.105       .  S
C775        H781   1.110       .  S
C778        H782   1.107       .  S
C778        H783   1.110       .  S
C778        H784   1.111       .  S
C785        C786   1.400       .  A
C785        C790   1.403       .  A
C785        H792   1.085       .  S
C786        C787   1.418       .  A
C787        C788   1.405       .  A
C787        C794   1.508       .  S
C788        C789   1.407       .  A
C788        H793   1.084       .  S
C789        C790   1.425       .  A
C790        C791   1.508       .  S
C791        H795   1.111       .  S
C791        H796   1.106       .  S
C791        H797   1.110       .  S
C794        H798   1.108       .  S
C794        H799   1.108       .  S
C794        H800   1.108       .  S
C801        C802   1.407       .  A
C801        C806   1.413       .  A
C801        H808   1.080       .  S
C802        C803   1.417       .  A
C803        C804   1.405       .  A
C803        C810   1.506       .  S
C804        C805   1.401       .  A
C804        H809   1.084       .  S
C805        C806   1.411       .  A
C806        C807   1.505       .  S
C807        H811   1.111       .  S
C807        H812   1.110       .  S
C807        H813   1.110       .  S
C810        H814   1.102       .  S
C810        H815   1.108       .  S
C810        H816   1.111       .  S
C817        C818   1.407       .  A
C817        C822   1.409       .  A
C817        H824   1.083       .  S
C818        C819   1.425       .  A
C819        C820   1.410       .  A
C819        C826   1.509       .  S
C820        C821   1.404       .  A
C820        H825   1.083       .  S
C821        C822   1.422       .  A
C822        C823   1.509       .  S
C823        H827   1.111       .  S
C823        H828   1.109       .  S
C823        H829   1.108       .  S
C826        H830   1.110       .  S
C826        H831   1.107       .  S
C826        H832   1.111       .  S
C833        C834   1.403   1_465  A
C833        C838   1.404       .  A
C833        H840   1.084       .  S
C834        C835   1.420       .  A
C835        C836   1.407   1_645  A
C835        C842   1.509       .  S
C836        C837   1.405       .  A
C836        H841   1.083       .  S
C837        C838   1.423       .  A
C838        C839   1.510       .  S
C839        H843   1.111       .  S
C839        H844   1.105       .  S
C839        H845   1.110       .  S
C842        H846   1.109       .  S
C842        H847   1.110       .  S
C842        H848   1.110       .  S
C849        C850   1.406       .  A
C849        C854   1.408       .  A
C849        H856   1.084       .  S
C850        C851   1.416       .  A
C851        C852   1.402       .  A
C851        C858   1.509       .  S
C852        C853   1.407       .  A
C852        H857   1.084       .  S
C853        C854   1.417       .  A
C854        C855   1.506       .  S
C855        H859   1.111       .  S
C855        H860   1.110       .  S
C855        H861   1.103       .  S
C858        H862   1.110       .  S
C858        H863   1.106       .  S
C858        H864   1.111       .  S
C865        C866   1.400       .  A
C865        C870   1.402       .  A
C865        H872   1.084       .  S
C866        C867   1.411       .  A
C867        C868   1.403       .  A
C867        C874   1.507       .  S
C868        C869   1.401       .  A
C868        H873   1.084       .  S
C869        C870   1.411       .  A
C870        C871   1.506       .  S
C871        H875   1.111       .  S
C871        H876   1.110       .  S
C871        H877   1.110       .  S
C874        H878   1.110       .  S
C874        H879   1.110       .  S
C874        H880   1.111       .  S
C881        C882   1.410       .  A
C881        C886   1.416       .  A
C881        H888   1.083       .  S
C882        C883   1.421       .  A
C883        C884   1.409       .  A
C883        C890   1.508       .  S
C884        C885   1.408       .  A
C884        H889   1.083       .  S
C885        C886   1.422       .  A
C886        C887   1.507       .  S
C887        H891   1.111       .  S
C887        H892   1.109       .  S
C887        H893   1.109       .  S
C890        H894   1.107       .  S
C890        H895   1.110       .  S
C890        H896   1.110       .  S
C897        C898   1.412       .  A
C897        C902   1.402   1_556  A
C897        H904   1.083       .  S
C898        C899   1.408   1_455  A
C899        C900   1.405       .  A
C899        C906   1.507       .  S
C900        C901   1.414   1_566  A
C900        H905   1.083       .  S
C901        C902   1.409   1_645  A
C902        C903   1.506   1_565  S
C903        H907   1.111       .  S
C903        H908   1.102       .  S
C903        H909   1.110       .  S
C906        H910   1.110       .  S
C906        H911   1.109       .  S
C906        H912   1.111       .  S
C913        C914   1.409   1_565  A
C913        C918   1.420       .  A
C913        H920   1.084   1_455  S
C914        C915   1.417       .  A
C915        C916   1.396       .  A
C915        C922   1.513       .  S
C916        C917   1.402   1_545  A
C916        H921   1.083       .  S
C917        C918   1.418       .  A
C918        C919   1.504       .  S
C919        H923   1.111       .  S
C919        H924   1.110       .  S
C919        H925   1.111       .  S
C922        H926   1.111   1_455  S
C922        H927   1.108       .  S
C922        H928   1.111       .  S
C929        C930   1.397       .  A
C929        C934   1.404       .  A
C929        H936   1.085   1_455  S
C930        C931   1.417       .  A
C931        C932   1.405       .  A
C931        C938   1.509       .  S
C932        C933   1.401       .  A
C932        H937   1.082       .  S
C933        C934   1.421       .  A
C934        C935   1.501       .  S
C935        H939   1.104   1_455  S
C935        H940   1.103   1_545  S
C935        H941   1.106       .  S
C938        H942   1.109       .  S
C938        H943   1.110       .  S
C938        H944   1.111       .  S
C945        C946   1.407       .  A
C945        C950   1.412       .  A
C945        H952   1.084       .  S
C946        C947   1.420       .  A
C947        C948   1.410       .  A
C947        C954   1.508       .  S
C948        C949   1.409       .  A
C948        H953   1.083       .  S
C949        C950   1.424       .  A
C950        C951   1.508       .  S
C951        H955   1.111       .  S
C951        H956   1.110       .  S
C951        H957   1.109       .  S
C954        H958   1.109       .  S
C954        H959   1.108       .  S
C954        H960   1.111       .  S
C961        C962   1.408       .  A
C961        C966   1.404       .  A
C961        H968   1.084       .  S
C962        C963   1.414       .  A
C963        C964   1.400   1_565  A
C963        C970   1.508       .  S
C964        C965   1.409       .  A
C964        H969   1.084       .  S
C965        C966   1.417   1_545  A
C966        C967   1.506       .  S
C967        H971   1.110       .  S
C967        H972   1.110   1_565  S
C967        H973   1.111       .  S
C970        H974   1.111       .  S
C970        H975   1.110       .  S
C970        H976   1.104       .  S
C977        C978   1.401       .  A
C977        C982   1.403       .  A
C977        H984   1.084       .  S
C978        C979   1.417       .  A
C979        C980   1.404       .  A
C979        C986   1.509   1_545  S
C980        C981   1.408       .  A
C980        H985   1.084       .  S
C981        C982   1.424       .  A
C982        C983   1.509       .  S
C983        H987   1.111       .  S
C983        H988   1.104       .  S
C983        H989   1.110       .  S
C986        H990   1.108       .  S
C986        H991   1.110   1_565  S
C986        H992   1.111   1_565  S
C993        C994   1.399       .  A
C993        C998   1.399       .  A
C993       H1000   1.085       .  S
C994        C995   1.410       .  A
C995        C996   1.402       .  A
C995       C1002   1.507       .  S
C996        C997   1.400       .  A
C996       H1001   1.084       .  S
C997        C998   1.411       .  A
C998        C999   1.507       .  S
C999       H1003   1.111       .  S
C999       H1004   1.111       .  S
C999       H1005   1.109       .  S
C1002      H1006   1.110       .  S
C1002      H1007   1.110       .  S
C1002      H1008   1.111       .  S
C1009      C1010   1.407       .  A
C1009      C1014   1.399       .  A
C1009      H1016   1.083       .  S
C1010      C1011   1.417       .  A
C1011      C1012   1.413       .  A
C1011      C1018   1.503       .  S
C1012      C1013   1.408       .  A
C1012      H1017   1.084       .  S
C1013      C1014   1.414       .  A
C1014      C1015   1.511       .  S
C1015      H1019   1.111       .  S
C1015      H1020   1.110       .  S
C1015      H1021   1.110       .  S
C1018      H1022   1.110       .  S
C1018      H1023   1.101       .  S
C1018      H1024   1.111       .  S
C1025      C1026   1.403       .  A
C1025      C1030   1.409       .  A
C1025      H1032   1.084       .  S
C1026      C1027   1.421       .  A
C1027      C1028   1.413       .  A
C1027      C1034   1.507       .  S
C1028      C1029   1.409       .  A
C1028      H1033   1.084       .  S
C1029      C1030   1.426       .  A
C1030      C1031   1.509       .  S
C1031      H1035   1.111       .  S
C1031      H1036   1.110       .  S
C1031      H1037   1.110       .  S
C1034      H1038   1.109       .  S
C1034      H1039   1.109       .  S
C1034      H1040   1.111       .  S
C1041      C1042   1.413   1_545  A
C1041      C1046   1.403   1_546  A
C1041      H1048   1.083       .  S
C1042      C1043   1.412       .  A
C1043      C1044   1.406       .  A
C1043      C1050   1.505       .  S
C1044      C1045   1.411   1_556  A
C1044      H1049   1.084       .  S
C1045      C1046   1.410       .  A
C1046      C1047   1.508   1_565  S
C1047      H1051   1.108       .  S
C1047      H1052   1.111       .  S
C1047      H1053   1.111       .  S
C1050      H1054   1.110       .  S
C1050      H1055   1.103       .  S
C1050      H1056   1.111       .  S
C1057      C1058   1.399       .  A
C1057      C1062   1.398   1_565  A
C1057      H1064   1.085       .  S
C1058      C1059   1.422   1_565  A
C1059      C1060   1.408       .  A
C1059      C1066   1.506       .  S
C1060      C1061   1.398       .  A
C1060      H1065   1.084       .  S
C1061      C1062   1.414       .  A
C1062      C1063   1.502   1_545  S
C1063      H1067   1.110       .  S
C1063      H1068   1.105   1_565  S
C1063      H1069   1.110       .  S
C1066      H1070   1.110       .  S
C1066      H1071   1.108       .  S
C1066      H1072   1.111       .  S
C1073      C1074   1.402       .  A
C1073      C1078   1.405       .  A
C1073      H1080   1.084       .  S
C1074      C1075   1.409       .  A
C1075      C1076   1.401       .  A
C1075      C1082   1.505       .  S
C1076      C1077   1.401       .  A
C1076      H1081   1.085       .  S
C1077      C1078   1.410       .  A
C1078      C1079   1.505       .  S
C1079      H1083   1.111       .  S
C1079      H1084   1.109       .  S
C1079      H1085   1.111       .  S
C1082      H1086   1.105       .  S
C1082      H1087   1.110       .  S
C1082      H1088   1.111       .  S
C1089      C1090   1.408       .  A
C1089      C1094   1.409       .  A
C1089      H1096   1.081       .  S
C1090      C1091   1.427       .  A
C1091      C1092   1.404       .  A
C1091      C1098   1.511       .  S
C1092      C1093   1.400       .  A
C1092      H1097   1.084       .  S
C1093      C1094   1.414       .  A
C1094      C1095   1.506       .  S
C1095      H1099   1.105       .  S
C1095      H1100   1.111       .  S
C1095      H1101   1.109       .  S
C1098      H1102   1.109       .  S
C1098      H1103   1.110       .  S
C1098      H1104   1.111       .  S
C1105      C1106   1.397       .  A
C1105      C1110   1.396       .  A
C1105      H1112   1.085       .  S
C1106      C1107   1.415   1_545  A
C1107      C1108   1.415       .  A
C1107      C1114   1.501       .  S
C1108      C1109   1.409       .  A
C1108      H1113   1.084       .  S
C1109      C1110   1.418   1_565  A
C1110      C1111   1.503       .  S
C1111      H1115   1.106       .  S
C1111      H1116   1.103       .  S
C1111      H1117   1.111       .  S
C1114      H1118   1.110       .  S
C1114      H1119   1.105       .  S
C1114      H1120   1.110       .  S
