geometry optimzed in LAMMPS
_audit_creation_date              2020-12-01 
_audit_creation_method            'lammps2cif' 
_symmetry_space_group_name_H-M    'P1' 
_symmetry_Int_Tables_number       1 
_symmetry_cell_setting            triclinic 
loop_ 
_symmetry_equiv_pos_as_xyz 
  x,y,z 
_cell_length_a                    48.86763946 
_cell_length_b                    48.86248684791763 
_cell_length_c                    30.145395413915974 
_cell_angle_alpha                 89.78291853456601 
_cell_angle_beta                  90.00188291475766 
_cell_angle_gamma                 89.98790939992918 
loop_ 
_atom_site_label 
_atom_site_type_symbol 
_atom_site_fract_x 
_atom_site_fract_y 
_atom_site_fract_z 
_atom_site_charge 
O1          O  0.70667585  0.48139115  0.78797383    -0.85100
O2          O  0.73552207  0.45695045  0.72137035    -0.82100
C3          C  0.73378214  0.43132109  0.72869205     0.98400
O4          O  0.71118017  0.41925910  0.72395292    -0.82100
O5          O  0.65599123  0.40937260  0.71127147    -0.84800
C6          C  0.64582582  0.40942768  0.74965371     1.02900
O7          O  0.64690773  0.43095480  0.77235592    -0.77600
O8          O  0.66220339  0.48239731  0.79998787    -0.77700
C9          C  0.68672186  0.48355467  0.81420468     1.02900
O10         O  0.68269767  0.52009375  0.72828739    -0.85100
O11         O  0.70844706  0.49349195  0.65792570    -0.82100
C12         C  0.71605382  0.47460279  0.63230626     0.98400
O13         O  0.71260640  0.45002507  0.64385570    -0.82200
O14         O  0.65639853  0.44667866  0.63941032    -0.84800
C15         C  0.63138534  0.44828530  0.64952577     1.02900
O16         O  0.62451069  0.45292002  0.68969115    -0.77600
O17         O  0.64132711  0.50413477  0.71641381    -0.77700
C18         C  0.65756822  0.52393759  0.72029743     1.02800
Cr19       Cr  0.70604567  0.48620273  0.72313531     1.93700
Cr20       Cr  0.68367872  0.43370929  0.68253650     1.93200
Cr21       Cr  0.64636433  0.46739678  0.74255844     1.39100
O22         O  0.67856991  0.46267416  0.71645400    -1.22800
O23         O  0.73417742  0.45161373  0.21894127    -0.85100
O24         O  0.76134365  0.47716534  0.28631491    -0.82100
C25         C  0.78048873  0.47933353  0.31420264     0.98400
O26         O  0.80524842  0.47822983  0.30161297    -0.82100
O27         O  0.82009654  0.42627881  0.27762413    -0.84800
C28         C  0.82194417  0.40421028  0.25660912     1.02900
O29         O  0.81391807  0.40354372  0.21684353    -0.77600
O30         O  0.75802707  0.41363610  0.22463179    -0.77700
C31         C  0.73545142  0.42605958  0.22763168     1.02900
O32         O  0.76323838  0.48691075  0.15518411    -0.85100
O33         O  0.78745366  0.51491226  0.22626838    -0.82100
C34         C  0.81302338  0.51841112  0.22160793     0.98400
O35         O  0.82908887  0.49836822  0.22030995    -0.82200
O36         O  0.84566738  0.44727510  0.19638036    -0.84800
C37         C  0.83974259  0.44387929  0.15558101     1.02900
O38         O  0.81524349  0.44035114  0.14380891    -0.77600
O39         O  0.75910872  0.44330180  0.14346043    -0.77700
C40         C  0.75710276  0.46753227  0.12933896     1.02800
Cr41       Cr  0.76375875  0.48093132  0.22118636     1.93700
Cr42       Cr  0.82244032  0.46211997  0.24668697     1.93200
Cr43       Cr  0.78691462  0.42756715  0.18500692     1.39100
O44         O  0.79113530  0.45716183  0.21794422    -1.22800
O45         O  0.98168203  0.21666765  0.30062364    -0.85100
O46         O  0.95688296  0.24217797  0.36985167    -0.82100
C47         C  0.93114888  0.24047516  0.36352082     0.98400
O48         O  0.91906525  0.21781870  0.36874357    -0.82100
O49         O  0.91034772  0.16178199  0.37398795    -0.84800
C50         C  0.90964949  0.15529365  0.33349567     1.02900
O51         O  0.93089988  0.15827252  0.31041480    -0.77600
O52         O  0.98269642  0.17318395  0.28322658    -0.77700
C53         C  0.98376919  0.19819945  0.27184701     1.02900
O54         O  0.02054905  0.18988596  0.35886289    -0.85100
O55         O  0.99428368  0.21371776  0.43035331    -0.82100
C56         C  0.97563364  0.22056147  0.45692315     0.98400
O57         O  0.95103979  0.21590518  0.44687629    -0.82200
O58         O  0.94965264  0.15918478  0.44359122    -0.84800
C59         C  0.95159981  0.13499649  0.42935779     1.02900
O60         O  0.95366417  0.13048200  0.38791057    -0.77600
O61         O  0.00414008  0.14799121  0.36289128    -0.77700
C62         C  0.02397792  0.16432354  0.36379818     1.02800
Cr63       Cr  0.98662257  0.21329519  0.36529597     1.93700
Cr64       Cr  0.93485983  0.18841635  0.40541391     1.93200
Cr65       Cr  0.96755613  0.15501875  0.33844434     1.39100
O66         O  0.96330321  0.18556936  0.36941092    -1.22800
O67         O  0.95185777  0.24106987  0.86149915    -0.85100
O68         O  0.97803593  0.27001050  0.79731341    -0.82100
C69         C  0.97992943  0.28946386  0.76995969     0.98400
O70         O  0.97735342  0.31409731  0.78286625    -0.82100
O71         O  0.92425159  0.32675628  0.80627100    -0.84800
C72         C  0.90208784  0.32738489  0.82748461     1.02900
O73         O  0.90171807  0.31909123  0.86705574    -0.77600
O74         O  0.91349923  0.26430090  0.85611683    -0.77700
C75         C  0.92657324  0.24233037  0.85083045     1.02900
O76         O  0.98537391  0.27038207  0.92808251    -0.85100
O77         O  0.01355159  0.29660628  0.85955563    -0.82100
C78         C  0.01586548  0.32212266  0.86642792     0.98400
O79         O  0.99505962  0.33724619  0.86673752    -0.82200
O80         O  0.94313674  0.35166192  0.88925275    -0.84800
C81         C  0.93932142  0.34473375  0.92968537     1.02900
O82         O  0.93774127  0.31981728  0.94011655    -0.77600
O83         O  0.94197873  0.26383065  0.93802850    -0.77700
C84         C  0.96603433  0.26264576  0.95284991     1.02800
Cr85       Cr  0.98043089  0.27157789  0.86217158     1.93700
Cr86       Cr  0.95969954  0.32988895  0.83822801     1.93200
Cr87       Cr  0.92606549  0.29218159  0.89768935     1.39100
O88         O  0.95566128  0.29796830  0.86550949    -1.22800
O89         O  0.74513810  0.02611613  0.21325565    -0.85100
O90         O  0.71612667  0.00179216  0.27911180    -0.82100
C91         C  0.69619376  0.99831693  0.30485992     0.98400
O92         O  0.67176199  0.99881254  0.29051297    -0.82100
O93         O  0.65714469  0.05133223  0.26553972    -0.84800
C94         C  0.65588919  0.07328220  0.24351216     1.02900
O95         O  0.66561198  0.07392556  0.20469279    -0.77600
O96         O  0.72094686  0.06392062  0.21629211    -0.77700
C97         C  0.74318175  0.05144623  0.22284751     1.02900
O98         O  0.71698886  0.98985280  0.15010170    -0.85100
O99         O  0.69174521  0.96292581  0.22030032    -0.82100
C100        C  0.66687270  0.95937252  0.20989377     0.98400
O101        O  0.65099936  0.97948494  0.20592159    -0.82200
O102        O  0.63441561  0.03073533  0.18315369    -0.84800
C103        C  0.64121688  0.03436013  0.14282569     1.02900
O104        O  0.66606070  0.03677712  0.13240933    -0.77600
O105        O  0.72223595  0.03331241  0.13581386    -0.77700
C106        C  0.72459861  0.00861648  0.12420469     1.02800
Cr107      Cr  0.71540869  0.99688223  0.21492747     1.93700
Cr108      Cr  0.65612427  0.01539702  0.23448636     1.93200
Cr109      Cr  0.69336805  0.04976259  0.17497441     1.39100
O110        O  0.68822593  0.02057181  0.20861472    -1.22800
O111        O  0.76287769  0.00233128  0.77614266    -0.85100
O112        O  0.73565469  0.02593987  0.70745977    -0.82100
C113        C  0.73614330  0.05134613  0.71669433     0.98400
O114        O  0.75826439  0.06451840  0.71378708    -0.82100
O115        O  0.81336588  0.07624163  0.70807927    -0.84800
C116        C  0.82174164  0.07557967  0.74763516     1.02900
O117        O  0.82017488  0.05358155  0.76925949    -0.77600
O118        O  0.80671963  0.00071218  0.79163581    -0.77700
C119        C  0.78189360  0.00079012  0.80418697     1.02900
O120        O  0.79103598  0.96476802  0.71806997    -0.85100
O121        O  0.76684520  0.99157428  0.64637947    -0.82100
C122        C  0.76012669  0.01057481  0.62012258     0.98400
O123        O  0.76134215  0.03502661  0.63316873    -0.82200
O124        O  0.81718063  0.04025580  0.63523311    -0.84800
C125        C  0.84169940  0.03947027  0.64821031     1.02900
O126        O  0.84718368  0.03517339  0.68890421    -0.77600
O127        O  0.83147386  0.98318678  0.70869182    -0.77700
C128        C  0.81641236  0.96236333  0.70999596     1.02800
Cr129      Cr  0.76617649  0.99783098  0.71164962     1.93700
Cr130      Cr  0.78784666  0.05177691  0.67522506     1.93200
Cr131      Cr  0.82390133  0.01829917  0.73754428     1.39100
O132        O  0.79269738  0.02247810  0.70850380    -1.22800
O133        O  0.51985503  0.23941024  0.86216197    -0.85100
O134        O  0.49472801  0.21064484  0.79684588    -0.82100
C135        C  0.49306862  0.19124043  0.76959399     0.98400
O136        O  0.49513418  0.16664630  0.78263023    -0.82100
O137        O  0.54833687  0.15530363  0.80505668    -0.84800
C138        C  0.57039105  0.15392317  0.82633235     1.02900
O139        O  0.57109634  0.16204001  0.86595242    -0.77600
O140        O  0.55894217  0.21731530  0.85722944    -0.77700
C141        C  0.54530157  0.23910532  0.85269236     1.02900
O142        O  0.48654147  0.20957546  0.92737199    -0.85100
O143        O  0.45911191  0.18313750  0.85870109    -0.82100
C144        C  0.45710350  0.15746718  0.86453481     0.98400
O145        O  0.47809824  0.14262590  0.86535938    -0.82200
O146        O  0.53021064  0.12874969  0.88675580    -0.84800
C147        C  0.53374738  0.13476119  0.92741233     1.02900
O148        O  0.53518160  0.15944400  0.93922822    -0.77600
O149        O  0.53002672  0.21562681  0.93886255    -0.77700
C150        C  0.50565246  0.21777305  0.95209363     1.02800
Cr151      Cr  0.49183805  0.20860730  0.86175268     1.93700
Cr152      Cr  0.51321151  0.15091475  0.83709243     1.93200
Cr153      Cr  0.54647036  0.18819081  0.89764688     1.39100
O154        O  0.51689334  0.18250575  0.86519897    -1.22800
O155        O  0.49752432  0.26003762  0.29876359    -0.85100
O156        O  0.52300731  0.23394615  0.36640366    -0.82100
C157        C  0.54848936  0.23674821  0.35803829     0.98400
O158        O  0.55991741  0.25957160  0.36397071    -0.82100
O159        O  0.56709325  0.31542970  0.37036198    -0.84800
C160        C  0.56669139  0.32314281  0.33031225     1.02900
O161        O  0.54515424  0.32017737  0.30796466    -0.77600
O162        O  0.49336890  0.30360812  0.28307249    -0.77700
C163        C  0.49442259  0.27875401  0.27061364     1.02900
O164        O  0.45751082  0.28503719  0.35695790    -0.85100
O165        O  0.48502908  0.26158180  0.42755947    -0.82100
C166        C  0.50378691  0.25495099  0.45401863     0.98400
O167        O  0.52844183  0.25931015  0.44357946    -0.82200
O168        O  0.52945603  0.31616250  0.44203811    -0.84800
C169        C  0.52759719  0.34069293  0.42911067     1.02900
O170        O  0.52378265  0.34589427  0.38803972    -0.77600
O171        O  0.47323627  0.32673615  0.36613098    -0.77700
C172        C  0.45361337  0.31014412  0.36579879     1.02800
Cr173      Cr  0.49237920  0.26239888  0.36290700     1.93700
Cr174      Cr  0.54393366  0.28778751  0.40231656     1.93200
Cr175      Cr  0.50916974  0.32162548  0.33834706     1.39100
O176        O  0.51498250  0.29062449  0.36752080    -1.22800
O177        O  0.24046693  0.95222395  0.37657175    -0.85100
O178        O  0.21259320  0.97666253  0.30925189    -0.82100
C179        C  0.19321337  0.98071192  0.28260288     0.98400
O180        O  0.16861255  0.97970183  0.29602424    -0.82100
O181        O  0.15479639  0.92631850  0.31842914    -0.84800
C182        C  0.15266936  0.90445438  0.34043895     1.02900
O183        O  0.16147880  0.90359875  0.37977476    -0.77600
O184        O  0.21686721  0.91403487  0.37242517    -0.77700
C185        C  0.23891504  0.92698282  0.36659851     1.02900
O186        O  0.21136521  0.98756225  0.43889837    -0.85100
O187        O  0.18637855  0.01444487  0.36851842    -0.82100
C188        C  0.16119480  0.01738210  0.37745736     0.98400
O189        O  0.14567185  0.99692426  0.37958842    -0.82200
O190        O  0.12908318  0.94549063  0.39936216    -0.84800
C191        C  0.13451352  0.94205498  0.44026430     1.02900
O192        O  0.15906097  0.93990916  0.45282616    -0.77600
O193        O  0.21541578  0.94409545  0.45331129    -0.77700
C194        C  0.21833924  0.96867483  0.46513442     1.02800
Cr195      Cr  0.21056524  0.98096273  0.37385211     1.93700
Cr196      Cr  0.15209446  0.96178393  0.35027598     1.93200
Cr197      Cr  0.18796346  0.92764266  0.41198260     1.39100
O198        O  0.18350893  0.95694610  0.37839775    -1.22800
O199        O  0.25863160  0.98157507  0.80866369    -0.85100
O200        O  0.23057703  0.95664838  0.87437296    -0.82100
C201        C  0.23283601  0.93135173  0.86484975     0.98400
O202        O  0.25523479  0.91911747  0.87080091    -0.82100
O203        O  0.31058602  0.91021679  0.88033372    -0.84800
C204        C  0.32044641  0.91128289  0.84167518     1.02900
O205        O  0.31813902  0.93308991  0.81956712    -0.77600
O206        O  0.30264604  0.98585156  0.79649097    -0.77700
C207        C  0.27809720  0.98573621  0.78233720     1.02900
O208        O  0.28335003  0.02025120  0.86834828    -0.85100
O209        O  0.25851636  0.99275667  0.93788209    -0.82100
C210        C  0.25209900  0.97378438  0.96423543     0.98400
O211        O  0.25448684  0.94926112  0.95167814    -0.82200
O212        O  0.31059482  0.94651024  0.95349873    -0.84800
C213        C  0.33540344  0.94792502  0.94224339     1.02900
O214        O  0.34176692  0.95230385  0.90190069    -0.77600
O215        O  0.32402420  0.00333297  0.88203294    -0.77700
C216        C  0.30811782  0.02342535  0.87974172     1.02800
Cr217      Cr  0.25985227  0.98616201  0.87293379     1.93700
Cr218      Cr  0.28295523  0.93343123  0.91151579     1.93200
Cr219      Cr  0.31911620  0.96840217  0.85171495     1.39100
O220        O  0.28732445  0.96273668  0.87821635    -1.22800
O221        O  0.45458474  0.74839629  0.72110697    -0.85100
O222        O  0.47876880  0.71910959  0.78735681    -0.82100
C223        C  0.48052926  0.69946765  0.81434908     0.98400
O224        O  0.47779524  0.67489233  0.80149747    -0.82100
O225        O  0.42411228  0.66369765  0.78011474    -0.84800
C226        C  0.40183260  0.66350476  0.75913462     1.02900
O227        O  0.40130291  0.67222778  0.71969331    -0.77600
O228        O  0.41536287  0.72688725  0.72779257    -0.77700
C229        C  0.42929421  0.74851982  0.73147327     1.02900
O230        O  0.48715598  0.71665631  0.65705248    -0.85100
O231        O  0.51381555  0.69076832  0.72647830    -0.82100
C232        C  0.51518798  0.66550629  0.71734666     0.98400
O233        O  0.49398612  0.65095900  0.71742391    -0.82200
O234        O  0.44156587  0.63765873  0.69793672    -0.84800
C235        C  0.43816553  0.64398889  0.65734413     1.02900
O236        O  0.43698833  0.66878832  0.64580522    -0.77600
O237        O  0.44392966  0.72437903  0.64590267    -0.77700
C238        C  0.46807450  0.72368050  0.63131708     1.02800
Cr239      Cr  0.48170261  0.71677459  0.72259609     1.93700
Cr240      Cr  0.45922819  0.65935116  0.74733542     1.93200
Cr241      Cr  0.42660226  0.69763536  0.68741803     1.39100
O242        O  0.45599390  0.69120506  0.71967916    -1.22800
O243        O  0.48286872  0.76738812  0.28736399    -0.85100
O244        O  0.45835965  0.73886951  0.22048838    -0.82100
C245        C  0.43282244  0.73841171  0.22907136     0.98400
O246        O  0.41862711  0.75995561  0.22564340    -0.82100
O247        O  0.40480995  0.81514148  0.21830947    -0.84800
C248        C  0.40506050  0.82353840  0.25776925     1.02900
O249        O  0.42695024  0.82249011  0.27961203    -0.77600
O250        O  0.48010450  0.81135313  0.30237144    -0.77700
C251        C  0.48342651  0.78678014  0.31479824     1.02900
O252        O  0.51768350  0.79639503  0.22620425    -0.85100
O253        O  0.49075741  0.77046268  0.15646628    -0.82100
C254        C  0.47170223  0.76302479  0.13098815     0.98400
O255        O  0.44741766  0.76351903  0.14487174    -0.82200
O256        O  0.44081641  0.81958299  0.14530675    -0.84800
C257        C  0.44220680  0.84417228  0.15782157     1.02900
O258        O  0.44543422  0.84974593  0.19868663    -0.77600
O259        O  0.49751808  0.83620306  0.22013306    -0.77700
C260        C  0.51902818  0.82206708  0.22018002     1.02800
Cr261      Cr  0.48546767  0.77034251  0.22222535     1.93700
Cr262      Cr  0.43025376  0.78997538  0.18635966     1.93200
Cr263      Cr  0.46237614  0.82732467  0.24806421     1.39100
O264        O  0.45956443  0.79588558  0.21938892    -1.22800
O265        O  0.99470877  0.71153164  0.28446521    -0.85100
O266        O  0.02140713  0.74155664  0.22091151    -0.82100
C267        C  0.04708225  0.74018561  0.22926024     0.98400
O268        O  0.06004944  0.71832977  0.22208025    -0.82100
O269        O  0.07137194  0.66360808  0.20752816    -0.84800
C270        C  0.07181565  0.65472421  0.24675185     1.02900
O271        O  0.05042027  0.65598604  0.26972987    -0.77600
O272        O  0.99813188  0.66724353  0.29693531    -0.77700
C273        C  0.99428821  0.69143686  0.31082295     1.02900
O274        O  0.95947463  0.68577719  0.22025104    -0.85100
O275        O  0.98718366  0.71355716  0.15324212    -0.82100
C276        C  0.00624383  0.72176250  0.12842719     0.98400
O277        O  0.03049573  0.72069955  0.14201734    -0.82200
O278        O  0.03378624  0.66423030  0.13667803    -0.84800
C279        C  0.03236750  0.63917983  0.14691171     1.02900
O280        O  0.02964036  0.63199643  0.18737068    -0.77600
O281        O  0.97837410  0.64522077  0.21379386    -0.77700
C282        C  0.95748112  0.66020980  0.21325494     1.02800
Cr283      Cr  0.99253184  0.71113112  0.21904067     1.93700
Cr284      Cr  0.04654031  0.69124880  0.17990480     1.93200
Cr285      Cr  0.01432939  0.65274788  0.24004450     1.39100
O286        O  0.01749461  0.68500838  0.21361363    -1.22800
O287        O  0.02056610  0.74362447  0.74106448    -0.85100
O288        O  0.98557935  0.77823072  0.78439546    -0.82100
C289        C  0.00106414  0.79077263  0.81160670     0.98400
O290        O  0.01621376  0.81006599  0.79814014    -0.82100
O291        O  0.04857255  0.84133482  0.74180047    -0.84800
C292        C  0.07045152  0.82782399  0.74266619     1.02900
O293        O  0.07083999  0.80405754  0.72669345    -0.77600
O294        O  0.05308785  0.75460656  0.69420073    -0.77700
C295        C  0.04342575  0.73857110  0.72320648     1.02900
O296        O  0.99471004  0.75477674  0.65714936    -0.85100
O297        O  0.96067284  0.79292980  0.69839984    -0.82100
C298        C  0.95320917  0.81352317  0.72050137     0.98400
O299        O  0.96977416  0.82436707  0.74705666    -0.82200
O300        O  0.00421374  0.84819020  0.68340367    -0.84800
C301        C  0.02293813  0.84883192  0.65435603     1.02900
O302        O  0.04245594  0.83169456  0.65476105    -0.77600
O303        O  0.02400803  0.78266419  0.62557013    -0.77700
C304        C  0.00707247  0.76335377  0.62284039     1.02800
Cr305      Cr  0.99209145  0.76966270  0.71949777     1.93700
Cr306      Cr  0.01006608  0.82832387  0.74032074     1.93200
Cr307      Cr  0.04518656  0.79350224  0.67826189     1.39100
O308        O  0.01583009  0.79689370  0.71224833    -1.22800
O309        O  0.23656871  0.52395206  0.36109246    -0.85100
O310        O  0.26551055  0.49605886  0.29897739    -0.82100
C311        C  0.28519518  0.49433765  0.27226204     0.98400
O312        O  0.30967409  0.49799089  0.28513854    -0.82100
O313        O  0.32167647  0.55120285  0.30647381    -0.84800
C314        C  0.32397832  0.57325665  0.32737245     1.02900
O315        O  0.31465105  0.57451038  0.36635986    -0.77600
O316        O  0.25984674  0.56236417  0.35516080    -0.77700
C317        C  0.23799283  0.54916432  0.34967558     1.02900
O318        O  0.26536332  0.49165434  0.42987160    -0.85100
O319        O  0.29251088  0.46216112  0.36387376    -0.82100
C320        C  0.31822175  0.46040019  0.36992839     0.98400
O321        O  0.33264980  0.48166560  0.36982371    -0.82200
O322        O  0.34646695  0.53380976  0.38997618    -0.84800
C323        C  0.33985918  0.53856567  0.43011251     1.02900
O324        O  0.31497511  0.53943673  0.44117035    -0.77600
O325        O  0.25860653  0.53520399  0.43816165    -0.77700
C326        C  0.25702472  0.51119353  0.45342379     1.02800
Cr327      Cr  0.26701852  0.49528922  0.36403667     1.93700
Cr328      Cr  0.32503107  0.51635042  0.33979549     1.93200
Cr329      Cr  0.28737642  0.55048579  0.39769441     1.39100
O330        O  0.29317239  0.52041794  0.36667250    -1.22800
O331        O  0.21480080  0.50551222  0.80209567    -0.85100
O332        O  0.24054139  0.52819330  0.87321158    -0.82100
C333        C  0.23874655  0.55381095  0.86593328     0.98400
O334        O  0.21606897  0.56582308  0.87049626    -0.82100
O335        O  0.16012234  0.57440040  0.87247702    -0.84800
C336        C  0.15235419  0.57390018  0.83241255     1.02900
O337        O  0.15509604  0.55216478  0.81056586    -0.77600
O338        O  0.17131199  0.50019376  0.78712022    -0.77700
C339        C  0.19591891  0.50220683  0.77416112     1.02900
O340        O  0.18861599  0.46451685  0.85734782    -0.85100
O341        O  0.21119071  0.49004385  0.93095727    -0.82100
C342        C  0.21583812  0.50821169  0.95958260     0.98400
O343        O  0.21254290  0.53315261  0.94942980    -0.82200
O344        O  0.15653674  0.53625267  0.94423352    -0.84800
C345        C  0.13241987  0.53406405  0.92988437     1.02900
O346        O  0.12809231  0.53095911  0.88868968    -0.77600
O347        O  0.14711209  0.48019905  0.86860745    -0.77700
C348        C  0.16341855  0.46047021  0.86521358     1.02800
Cr349      Cr  0.21160399  0.49869863  0.86638770     1.93700
Cr350      Cr  0.18620123  0.55021343  0.90636017     1.93200
Cr351      Cr  0.15291645  0.51619245  0.84099515     1.39100
O352        O  0.18358005  0.52160311  0.87103481    -1.22800
C353        C  0.22138975  0.52682077  0.56241875    -0.01700
C354        C  0.22629422  0.50296696  0.58746729     0.06900
C355        C  0.23935630  0.48068615  0.56731585    -0.07700
C356        C  0.24833851  0.48218699  0.52308339     0.04300
C357        C  0.24514479  0.50682675  0.49863378    -0.14900
C358        C  0.23103747  0.52870413  0.51875732    -0.08300
C359        C  0.21879890  0.50141160  0.63519731     0.05200
C360        C  0.19158322  0.49628503  0.64726178    -0.09400
C361        C  0.18355863  0.49591625  0.69200764     0.00200
C362        C  0.20309621  0.50086229  0.72591231     0.00100
C363        C  0.23048030  0.50570801  0.71327394    -0.12900
C364        C  0.23835550  0.50608506  0.66859953     0.00600
C365        C  0.15513285  0.49050609  0.70162791     0.39900
C366        C  0.26650920  0.51213911  0.65772470     0.36500
C367        C  0.20679780  0.54975013  0.58114617     0.36200
C368        C  0.26085828  0.45818305  0.50409926     0.37000
N369        N  0.13231755  0.48616670  0.70916874    -0.43800
N370        N  0.28905209  0.51707538  0.64906762    -0.44300
N371        N  0.27060952  0.43880000  0.48881973    -0.41600
N372        N  0.19490481  0.56798663  0.59615943    -0.43100
H373        H  0.22763577  0.54755815  0.50047259     0.13100
H374        H  0.24268419  0.46210297  0.58637187     0.09600
H375        H  0.17650094  0.49279145  0.62150442     0.10700
H376        H  0.24588926  0.50973098  0.73829226     0.16500
C377        C  0.28338467  0.50464505  0.14803851    -0.01700
C378        C  0.26049677  0.48879243  0.13564864     0.06900
C379        C  0.24813816  0.47177926  0.16736754    -0.07700
C380        C  0.25701442  0.47192262  0.21168150     0.04300
C381        C  0.27889339  0.48912619  0.22475002    -0.14900
C382        C  0.29259870  0.50436040  0.19210856    -0.08300
C383        C  0.24735539  0.49234125  0.09142588     0.05200
C384        C  0.25061432  0.47245829  0.05836707    -0.09400
C385        C  0.23974754  0.47648202  0.01555639     0.00200
C386        C  0.22579495  0.50114437  0.00509316     0.00100
C387        C  0.22179884  0.52041623  0.03907735    -0.12900
C388        C  0.23195250  0.51600175  0.08189632     0.00600
C389        C  0.24389325  0.45530050  0.98300056     0.39900
C390        C  0.22596324  0.53584071  0.11595474     0.36500
C391        C  0.29679270  0.52247009  0.11652433     0.36200
C392        C  0.24311711  0.45447583  0.24321345     0.37000
N393        N  0.24709197  0.43821393  0.95702330    -0.43800
N394        N  0.22102762  0.55150449  0.14351846    -0.44300
N395        N  0.23203115  0.44048373  0.26852689    -0.41600
N396        N  0.30739733  0.53687149  0.09127753    -0.43100
H397        H  0.30947052  0.51737247  0.20160589     0.13100
H398        H  0.23068946  0.45937794  0.15795628     0.09600
H399        H  0.26202961  0.45396485  0.06584566     0.10700
H400        H  0.21049631  0.53908202  0.03231021     0.16500
C401        C  0.06331870  0.67338731  0.78536225    -0.01700
C402        C  0.08904601  0.66690104  0.76681795     0.06900
C403        C  0.09912118  0.68318306  0.73212376    -0.07700
C404        C  0.08463994  0.70615829  0.71679799     0.04300
C405        C  0.05924504  0.71350531  0.73655925    -0.14900
C406        C  0.04885986  0.69650584  0.77047747    -0.08300
C407        C  0.10601078  0.64351248  0.78330876     0.05200
C408        C  0.11297901  0.62221865  0.75423076    -0.09400
C409        C  0.12875615  0.59978190  0.76856828     0.00200
C410        C  0.13796373  0.59830739  0.81318937     0.00100
C411        C  0.13167327  0.62026558  0.84161407    -0.12900
C412        C  0.11608433  0.64264264  0.82713958     0.00600
C413        C  0.13508275  0.57880718  0.73653022     0.39900
C414        C  0.11108693  0.66469792  0.85785165     0.36500
C415        C  0.05110594  0.65638135  0.81928050     0.36200
C416        C  0.09666020  0.72154566  0.68073212     0.37000
N417        N  0.14013802  0.56210686  0.71065782    -0.43800
N418        N  0.10701375  0.68230508  0.88255524    -0.44300
N419        N  0.10639282  0.73373362  0.65176243    -0.41600
N420        N  0.04135976  0.64279415  0.84655077    -0.43100
H421        H  0.02934715  0.70127164  0.78573156     0.13100
H422        H  0.11870666  0.67811562  0.71731113     0.09600
H423        H  0.10579241  0.62300889  0.72019828     0.10700
H424        H  0.13862885  0.61991397  0.87577135     0.16500
C425        C  0.13737154  0.61381987  0.24474768    -0.01700
C426        C  0.14254386  0.60941983  0.29017828     0.06900
C427        C  0.12520764  0.62127799  0.32181789    -0.07700
C428        C  0.10251537  0.63691665  0.30878623     0.04300
C429        C  0.09669977  0.64054550  0.26319834    -0.14900
C430        C  0.11461249  0.62915200  0.23169598    -0.08300
C431        C  0.16661398  0.59341358  0.30513630     0.05200
C432        C  0.19272529  0.60386622  0.29667094    -0.09400
C433        C  0.21614597  0.58962438  0.30985335     0.00200
C434        C  0.21367358  0.56408944  0.33230797     0.00100
C435        C  0.18734173  0.55352224  0.34020596    -0.12900
C436        C  0.16391413  0.56803162  0.32707759     0.00600
C437        C  0.24228170  0.60193111  0.29940287     0.39900
C438        C  0.13731012  0.55646431  0.33613657     0.36500
C439        C  0.15482169  0.60232308  0.21089971     0.36200
C440        C  0.08637872  0.64987390  0.34282424     0.37000
N441        N  0.26313028  0.61197560  0.29114752    -0.43800
N442        N  0.11593726  0.54730259  0.34343300    -0.44300
N443        N  0.07375669  0.66043508  0.37034655    -0.41600
N444        N  0.16886758  0.59320388  0.18380637    -0.43100
H445        H  0.11054968  0.63168615  0.19653608     0.13100
H446        H  0.12965136  0.61855275  0.35682942     0.09600
H447        H  0.19477779  0.62340579  0.27973313     0.10700
H448        H  0.18497880  0.53415534  0.35747281     0.16500
C449        C  0.06422390  0.55918999  0.97147727    -0.01700
C450        C  0.06975549  0.56191615  0.01713679     0.06900
C451        C  0.09312172  0.54939721  0.03493720    -0.07700
C452        C  0.11262203  0.53736115  0.00732015     0.04300
C453        C  0.10919250  0.53849702  0.96073042    -0.14900
C454        C  0.08406669  0.54781416  0.94353501    -0.08300
C455        C  0.05440266  0.58113082  0.04586469     0.05200
C456        C  0.04325051  0.57160350  0.08592244    -0.09400
C457        C  0.03436138  0.58991648  0.11860772     0.00200
C458        C  0.03677766  0.61849618  0.11143652     0.00100
C459        C  0.04618578  0.62778787  0.06988217    -0.12900
C460        C  0.05513968  0.60955224  0.03747969     0.00600
C461        C  0.02354019  0.57863491  0.15930226     0.39900
C462        C  0.06720082  0.62075152  0.99754021     0.36500
C463        C  0.03890999  0.56900085  0.95251335     0.36200
C464        C  0.13615140  0.52463761  0.02779243     0.37000
N465        N  0.01474894  0.56951666  0.19179686    -0.43800
N466        N  0.07679231  0.62975023  0.96554973    -0.44300
N467        N  0.15481622  0.51425459  0.04443837    -0.41600
N468        N  0.01857377  0.57678285  0.93736451    -0.43100
H469        H  0.08055605  0.54787675  0.90800801     0.13100
H470        H  0.09701259  0.55055135  0.07032843     0.09600
H471        H  0.04265188  0.54975957  0.09243929     0.10700
H472        H  0.04811763  0.64954387  0.06331596     0.16500
C473        C  0.97229683  0.72681509  0.52611533    -0.01700
C474        C  0.99392874  0.72449100  0.49516447     0.06900
C475        C  0.01959373  0.73522622  0.50640121    -0.07700
C476        C  0.02411489  0.74793367  0.54731206     0.04300
C477        C  0.00263013  0.75009125  0.57876303    -0.14900
C478        C  0.97688176  0.73915379  0.56768093    -0.08300
C479        C  0.99041671  0.71241341  0.44989803     0.05200
C480        C  0.97291244  0.72533953  0.41941033    -0.09400
C481        C  0.97269972  0.71778594  0.37448278     0.00200
C482        C  0.99019062  0.69674528  0.35910971     0.00100
C483        C  0.00606873  0.68238780  0.39028045    -0.12900
C484        C  0.00663524  0.69024464  0.43509246     0.00600
C485        C  0.95431383  0.73199206  0.34481389     0.39900
C486        C  0.02473904  0.67583086  0.46497002     0.36500
C487        C  0.94528336  0.71666031  0.51605010     0.36200
C488        C  0.05133644  0.75806736  0.55615783     0.37000
N489        N  0.93949796  0.74331169  0.32107015    -0.43800
N490        N  0.03940664  0.66436704  0.48877820    -0.44300
N491        N  0.07313742  0.76627271  0.56302162    -0.41600
N492        N  0.92355077  0.70870280  0.50796335    -0.43100
H493        H  0.96016417  0.74067668  0.59119870     0.13100
H494        H  0.03623314  0.73395873  0.48266014     0.09600
H495        H  0.96025782  0.74227202  0.43031908     0.10700
H496        H  0.01917203  0.66587794  0.37919092     0.16500
C497        C  0.97660536  0.76066665  0.92109347    -0.01700
C498        C  0.99923649  0.76485507  0.94939489     0.06900
C499        C  0.02229759  0.77853284  0.93248560    -0.07700
C500        C  0.02313820  0.78788519  0.88839560     0.04300
C501        C  0.00073850  0.78295443  0.85957330    -0.14900
C502        C  0.97762958  0.76940553  0.87674538    -0.08300
C503        C  0.99950928  0.75440560  0.99615296     0.05200
C504        C  0.99519213  0.72634322  0.00414030    -0.09400
C505        C  0.99578765  0.71556826  0.04734261     0.00200
C506        C  0.00106149  0.73290753  0.08360657     0.00100
C507        C  0.00554734  0.76086967  0.07582737    -0.12900
C508        C  0.00458107  0.77175675  0.03270037     0.00600
C509        C  0.99204429  0.68649054  0.05345042     0.39900
C510        C  0.00870119  0.80080765  0.02693198     0.36500
C511        C  0.95178401  0.74802227  0.93710268     0.36200
C512        C  0.04761329  0.80178503  0.87368123     0.37000
N513        N  0.98895081  0.66318023  0.05813758    -0.43800
N514        N  0.01207973  0.82408917  0.02235893    -0.44300
N515        N  0.06723065  0.81303577  0.86221211    -0.41600
N516        N  0.93191289  0.73790988  0.95008520    -0.43100
H517        H  0.96007893  0.76580198  0.85553103     0.13100
H518        H  0.03993106  0.78163881  0.95374270     0.09600
H519        H  0.99182107  0.71269189  0.97638270     0.10700
H520        H  0.01018313  0.77418600  0.10355270     0.16500
C521        C  0.37625317  0.68600780  0.24036541    -0.01700
C522        C  0.38921087  0.66460021  0.26355181     0.06900
C523        C  0.41711802  0.66675894  0.27387582    -0.07700
C524        C  0.43206378  0.69026225  0.26224653     0.04300
C525        C  0.41879979  0.71230240  0.24043772    -0.14900
C526        C  0.39096453  0.70959433  0.22930566    -0.08300
C527        C  0.37325044  0.64085023  0.28000678     0.05200
C528        C  0.36612452  0.61986674  0.25072427    -0.09400
C529        C  0.34977727  0.59786780  0.26472755     0.00200
C530        C  0.33985594  0.59683155  0.30896190     0.00100
C531        C  0.34707430  0.61822398  0.33797439    -0.12900
C532        C  0.36368668  0.63991871  0.32397665     0.00600
C533        C  0.34381362  0.57690205  0.23265914     0.39900
C534        C  0.37056956  0.66119950  0.35516923     0.36500
C535        C  0.34764501  0.68444482  0.22863000     0.36200
C536        C  0.46055176  0.69157853  0.27475225     0.37000
N537        N  0.33950520  0.56035009  0.20625118    -0.43800
N538        N  0.37622677  0.67830379  0.37998055    -0.44300
N539        N  0.48339726  0.69254128  0.28475481    -0.41600
N540        N  0.32472992  0.68307059  0.21922004    -0.43100
H541        H  0.38053815  0.72603910  0.21190242     0.13100
H542        H  0.42707813  0.65024682  0.29183617     0.09600
H543        H  0.37336418  0.62074348  0.21671317     0.10700
H544        H  0.34014125  0.61788535  0.37214865     0.16500
C545        C  0.33428768  0.62558657  0.76340361    -0.01700
C546        C  0.33027859  0.62149277  0.80922073     0.06900
C547        C  0.34893575  0.63300642  0.83924148    -0.07700
C548        C  0.37199152  0.64753405  0.82416985     0.04300
C549        C  0.37668201  0.65069118  0.77808131    -0.14900
C550        C  0.35720816  0.64003793  0.74832793    -0.08300
C551        C  0.30735551  0.60428042  0.82599663     0.05200
C552        C  0.30818879  0.57592884  0.81891048    -0.09400
C553        C  0.28663911  0.55890031  0.83263283     0.00200
C554        C  0.26326273  0.57034646  0.85328322     0.00100
C555        C  0.26279828  0.59880361  0.86086206    -0.12900
C556        C  0.28460258  0.61566735  0.84785062     0.00600
C557        C  0.28899449  0.52995851  0.82402481     0.39900
C558        C  0.28292462  0.64465736  0.85652570     0.36500
C559        C  0.31512145  0.61513292  0.73116113     0.36200
C560        C  0.39002286  0.65936938  0.85676135     0.37000
N561        N  0.29114276  0.50676221  0.81722541    -0.43800
N562        N  0.28153785  0.66786431  0.86372168    -0.44300
N563        N  0.40419899  0.66892533  0.88325415    -0.41600
N564        N  0.29977831  0.60685663  0.70522691    -0.43100
H565        H  0.36021625  0.64231527  0.71284427     0.13100
H566        H  0.34568919  0.63023211  0.87458010     0.09600
H567        H  0.32578317  0.56708683  0.80231902     0.10700
H568        H  0.24527962  0.60802948  0.87707192     0.16500
C569        C  0.41924359  0.61424122  0.54641540    -0.01700
C570        C  0.41268962  0.58700095  0.55756984     0.06900
C571        C  0.41893913  0.57716786  0.60017368    -0.07700
C572        C  0.42907127  0.59473883  0.63293787     0.04300
C573        C  0.43312496  0.62280756  0.62296640    -0.14900
C574        C  0.42959522  0.63168465  0.57883099    -0.08300
C575        C  0.39583495  0.57003638  0.52741362     0.05200
C576        C  0.40566672  0.56349872  0.48505070    -0.09400
C577        C  0.38839737  0.55190205  0.45309691     0.00200
C578        C  0.36074709  0.54610007  0.46386416     0.00100
C579        C  0.35172662  0.55089788  0.50753016    -0.12900
C580        C  0.36874044  0.56312389  0.53886838     0.00600
C581        C  0.39933148  0.54784971  0.40912029     0.39900
C582        C  0.35715196  0.57043609  0.58134649     0.36500
C583        C  0.41350498  0.62550446  0.50299565     0.36200
C584        C  0.43391770  0.58346090  0.67655783     0.37000
N585        N  0.40809772  0.54474851  0.37382831    -0.43800
N586        N  0.34788113  0.57643023  0.61528113    -0.44300
N587        N  0.43783781  0.57423508  0.71140061    -0.41600
N588        N  0.40896912  0.63462219  0.46827451    -0.43100
H589        H  0.43347059  0.65284327  0.56987091     0.13100
H590        H  0.41441428  0.55602523  0.60849940     0.09600
H591        H  0.42653786  0.56879652  0.47625158     0.10700
H592        H  0.33072007  0.54654139  0.51679796     0.16500
C593        C  0.50382923  0.75360212  0.53018737    -0.01700
C594        C  0.48282277  0.75274915  0.49813572     0.06900
C595        C  0.45781120  0.74049258  0.50904843    -0.07700
C596        C  0.45302623  0.73006276  0.55156474     0.04300
C597        C  0.47349454  0.73216514  0.58471596    -0.14900
C598        C  0.49903765  0.74339353  0.57314054    -0.08300
C599        C  0.48609435  0.76427868  0.45275252     0.05200
C600        C  0.50355299  0.75122383  0.42257334    -0.09400
C601        C  0.50411000  0.75916164  0.37781500     0.00200
C602        C  0.48685555  0.78046149  0.36263198     0.00100
C603        C  0.47073996  0.79463701  0.39351655    -0.12900
C604        C  0.47010660  0.78662650  0.43817408     0.00600
C605        C  0.52289998  0.74547685  0.34833893     0.39900
C606        C  0.45253281  0.80132316  0.46836331     0.36500
C607        C  0.53009720  0.76557604  0.52008873     0.36200
C608        C  0.42710814  0.71668311  0.55958803     0.37000
N609        N  0.53813436  0.73468160  0.32478760    -0.43800
N610        N  0.43847243  0.81308395  0.49260152    -0.44300
N611        N  0.40635982  0.70591623  0.56583207    -0.41600
N612        N  0.55117512  0.77512875  0.51190297    -0.43100
H613        H  0.51503711  0.74487636  0.59793659     0.13100
H614        H  0.44189823  0.73908207  0.48405062     0.09600
H615        H  0.51613131  0.73425947  0.43373469     0.10700
H616        H  0.45771477  0.81125966  0.38240658     0.16500
C617        C  0.47137801  0.69757911  0.93882089    -0.01700
C618        C  0.48470431  0.72186259  0.95190374     0.06900
C619        C  0.49944479  0.73696306  0.92040649    -0.07700
C620        C  0.49966042  0.72915650  0.87574712     0.04300
C621        C  0.48490390  0.70572007  0.86197919    -0.14900
C622        C  0.47179345  0.68956817  0.89421485    -0.08300
C623        C  0.48182938  0.73292008  0.99746301     0.05200
C624        C  0.50436415  0.73287588  0.02634492    -0.09400
C625        C  0.50199405  0.74288103  0.06985173     0.00200
C626        C  0.47661200  0.75323876  0.08492889     0.00100
C627        C  0.45432007  0.75365036  0.05527873    -0.12900
C628        C  0.45677344  0.74390757  0.01199868     0.00600
C629        C  0.52558988  0.74129232  0.09849405     0.39900
C630        C  0.43340433  0.74592025  0.98277697     0.36500
C631        C  0.45653070  0.68102380  0.97045467     0.36200
C632        C  0.51529631  0.74553267  0.84484378     0.37000
N633        N  0.54455718  0.73991394  0.12137777    -0.43800
N634        N  0.41468672  0.74762263  0.95940372    -0.44300
N635        N  0.52788596  0.75859919  0.82009262    -0.41600
N636        N  0.44457419  0.66784672  0.99586401    -0.43100
H637        H  0.46076114  0.67135847  0.88426646     0.13100
H638        H  0.51004097  0.75542075  0.93050932     0.09600
H639        H  0.52374690  0.72462544  0.01502119     0.10700
H640        H  0.43475910  0.76192204  0.06574302     0.16500
C641        C  0.11378931  0.87726964  0.80843870    -0.01700
C642        C  0.14040670  0.87166369  0.79302612     0.06900
C643        C  0.14435933  0.85022298  0.76277978    -0.07700
C644        C  0.12211899  0.83496643  0.74675191     0.04300
C645        C  0.09529041  0.84110629  0.76123623    -0.14900
C646        C  0.09161631  0.86222665  0.79231881    -0.08300
C647        C  0.16442492  0.88718637  0.80972031     0.05200
C648        C  0.18384212  0.87337096  0.83558108    -0.09400
C649        C  0.20611464  0.88728460  0.85402325     0.00200
C650        C  0.20912682  0.91584209  0.84705524     0.00100
C651        C  0.18971460  0.92959500  0.82077165    -0.12900
C652        C  0.16775130  0.91546555  0.80157402     0.00600
C653        C  0.22510122  0.87167487  0.88075584     0.39900
C654        C  0.14946578  0.93019606  0.77239219     0.36500
C655        C  0.10879876  0.89795998  0.84157854     0.36200
C656        C  0.12735544  0.81403627  0.71417770     0.37000
N657        N  0.24034437  0.85908299  0.90197841    -0.43800
N658        N  0.13494353  0.94200979  0.74880102    -0.44300
N659        N  0.13155014  0.79727794  0.68801530    -0.41600
N660        N  0.10486964  0.91453921  0.86814386    -0.43100
H661        H  0.07123591  0.86704873  0.80423258     0.13100
H662        H  0.16487326  0.84566039  0.75121841     0.09600
H663        H  0.18136408  0.85164220  0.84185104     0.10700
H664        H  0.19209338  0.95128336  0.81422119     0.16500
C665        C  0.37227640  0.79482084  0.77144401    -0.01700
C666        C  0.38502988  0.82059164  0.77409965     0.06900
C667        C  0.41276689  0.82296735  0.76260311    -0.07700
C668        C  0.42787671  0.80003597  0.74872942     0.04300
C669        C  0.41508681  0.77400121  0.74627140    -0.14900
C670        C  0.38721209  0.77201179  0.75780920    -0.08300
C671        C  0.36974016  0.84471999  0.79097644     0.05200
C672        C  0.36008832  0.84395748  0.83465746    -0.09400
C673        C  0.34382681  0.86498811  0.85160250     0.00200
C674        C  0.33668750  0.88771960  0.82436491     0.00100
C675        C  0.34693630  0.88863045  0.78067055    -0.12900
C676        C  0.36340897  0.86746797  0.76398269     0.00600
C677        C  0.33544495  0.86255493  0.89743015     0.39900
C678        C  0.37321373  0.86927796  0.71890331     0.36500
C679        C  0.34365072  0.79130438  0.78203863     0.36200
C680        C  0.45629062  0.80406363  0.73737023     0.37000
N681        N  0.32885958  0.86059200  0.93418925    -0.43800
N682        N  0.38121999  0.87072270  0.68284255    -0.44300
N683        N  0.47905513  0.80745501  0.72828551    -0.41600
N684        N  0.32073446  0.78852217  0.79060736    -0.43100
H685        H  0.37676171  0.75246349  0.75619304     0.13100
H686        H  0.42270375  0.84276116  0.76496868     0.09600
H687        H  0.36521636  0.82660079  0.85563748     0.10700
H688        H  0.34216421  0.90593054  0.75940869     0.16500
C689        C  0.41692252  0.91142254  0.11125236    -0.01700
C690        C  0.41510702  0.90538386  0.06569425     0.06900
C691        C  0.42744351  0.88155882  0.04956269    -0.07700
C692        C  0.43867080  0.86223160  0.07874856     0.04300
C693        C  0.43724060  0.86654842  0.12517222    -0.14900
C694        C  0.42785339  0.89202452  0.14063212    -0.08300
C695        C  0.39510509  0.91965669  0.03679561     0.05200
C696        C  0.40384187  0.93568216  0.00073264    -0.09400
C697        C  0.38476693  0.94665671  0.97054802     0.00200
C698        C  0.35653803  0.94097677  0.97591473     0.00100
C699        C  0.34806180  0.92581564  0.01319736    -0.12900
C700        C  0.36691815  0.91513970  0.04323096     0.00600
C701        C  0.39461618  0.96395532  0.93506235     0.39900
C702        C  0.35688468  0.89823231  0.07918048     0.36500
C703        C  0.40574473  0.93652058  0.12873269     0.36200
C704        C  0.45069686  0.83789469  0.05998337     0.37000
N705        N  0.40241966  0.97804805  0.90682853    -0.43800
N706        N  0.34898083  0.88469258  0.10803136    -0.44300
N707        N  0.46044576  0.81852650  0.04467997    -0.41600
N708        N  0.39675228  0.95668316  0.14250674    -0.43100
H709        H  0.42725544  0.89612755  0.17594442     0.13100
H710        H  0.42647296  0.87708974  0.01436611     0.09600
H711        H  0.42553240  0.93932408  0.99592984     0.10700
H712        H  0.32657872  0.92110817  0.01808782     0.16500
C713        C  0.06630518  0.81452618  0.25081130    -0.01700
C714        C  0.09273553  0.81200034  0.26910306     0.06900
C715        C  0.10383817  0.78591959  0.27555049    -0.07700
C716        C  0.08925079  0.76238476  0.26379733     0.04300
C717        C  0.06268671  0.76466332  0.24479608    -0.14900
C718        C  0.05154303  0.79100129  0.23881447    -0.08300
C719        C  0.10817982  0.83598233  0.28595630     0.05200
C720        C  0.10772290  0.84096861  0.33158691    -0.09400
C721        C  0.12232595  0.86278205  0.34988866     0.00200
C722        C  0.13785401  0.88041668  0.32210256     0.00100
C723        C  0.13828997  0.87534183  0.27619893    -0.12900
C724        C  0.12388293  0.85311629  0.25809427     0.00600
C725        C  0.12008799  0.86691605  0.39719923     0.39900
C726        C  0.12604274  0.84782794  0.21116846     0.36500
C727        C  0.05380656  0.84104782  0.24487056     0.36200
C728        C  0.10203808  0.73629442  0.27299700     0.37000
N729        N  0.11825073  0.87003982  0.43512347    -0.43800
N730        N  0.12796894  0.84351166  0.17357850    -0.44300
N731        N  0.11242723  0.71548652  0.28044975    -0.41600
N732        N  0.04381657  0.86233909  0.24020533    -0.43100
H733        H  0.03135013  0.79329986  0.22435417     0.13100
H734        H  0.12394376  0.78395634  0.29053918     0.09600
H735        H  0.09576292  0.82769681  0.35306088     0.10700
H736        H  0.15020523  0.88850784  0.25453304     0.16500
C737        C  0.04414644  0.91517093  0.60387454    -0.01700
C738        C  0.04915079  0.90679001  0.55972161     0.06900
C739        C  0.03858304  0.88155750  0.54551995    -0.07700
C740        C  0.02587701  0.86371288  0.57541273     0.04300
C741        C  0.02425244  0.87062894  0.62064906    -0.14900
C742        C  0.03193316  0.89696628  0.63406065    -0.08300
C743        C  0.06908599  0.92127347  0.53036110     0.05200
C744        C  0.09547044  0.92644735  0.54681223    -0.09400
C745        C  0.11656825  0.93534454  0.51892751     0.00200
C746        C  0.11184282  0.93808445  0.47274501     0.00100
C747        C  0.08496958  0.93465376  0.45681761    -0.12900
C748        C  0.06368063  0.92655448  0.48512309     0.00600
C749        C  0.14280495  0.94112502  0.53894584     0.39900
C750        C  0.03658367  0.92333623  0.46676639     0.36500
C751        C  0.05283246  0.94165503  0.61959306     0.36200
C752        C  0.01592918  0.83775518  0.55933043     0.37000
N753        N  0.16374707  0.94592782  0.55508543    -0.43800
N754        N  0.01488247  0.92072298  0.45201031    -0.44300
N755        N  0.00764634  0.81721794  0.54586943    -0.41600
N756        N  0.05990932  0.96285175  0.63216919    -0.43100
H757        H  0.03063086  0.90243778  0.66883101     0.13100
H758        H  0.04205362  0.87478342  0.51178348     0.09600
H759        H  0.10002329  0.92239799  0.58143435     0.10700
H760        H  0.08064486  0.93732519  0.42178447     0.16500
C761        C  0.18468334  0.98494315  0.15755281    -0.01700
C762        C  0.21169776  0.99016688  0.14334723     0.06900
C763        C  0.23191485  0.99547764  0.17499355    -0.07700
C764        C  0.22617350  0.99369671  0.22038069     0.04300
C765        C  0.19951706  0.98631337  0.23499971    -0.14900
C766        C  0.17881270  0.98302052  0.20300589    -0.08300
C767        C  0.22022352  0.98676666  0.09637639     0.05200
C768        C  0.23134093  0.00896606  0.07280380    -0.09400
C769        C  0.24189438  0.00554467  0.02978817     0.00200
C770        C  0.24093258  0.97945231  0.00934243     0.00100
C771        C  0.22979873  0.95737924  0.03345641    -0.12900
C772        C  0.21999047  0.96070837  0.07658465     0.00600
C773        C  0.25483038  0.02879086  0.00877417     0.39900
C774        C  0.21140488  0.93668396  0.10096890     0.36500
C775        C  0.16285397  0.98084512  0.12599049     0.36200
C776        C  0.24834365  0.99922355  0.25075591     0.37000
N777        N  0.26541375  0.04740708  0.99224291    -0.43800
N778        N  0.20472609  0.91747537  0.12075516    -0.44300
N779        N  0.26620974  0.00363487  0.27489820    -0.41600
N780        N  0.14537773  0.97756587  0.10065605    -0.43100
H781        H  0.15816914  0.97794180  0.21334087     0.13100
H782        H  0.25264213  0.99982489  0.16413656     0.09600
H783        H  0.23239114  0.02886964  0.08854477     0.10700
H784        H  0.22927230  0.93708196  0.01904448     0.16500
C785        C  0.28642929  0.98694532  0.65693551    -0.01700
C786        C  0.25930037  0.99129250  0.64228974     0.06900
C787        C  0.23886750  0.99620905  0.67377851    -0.07700
C788        C  0.24464557  0.99562897  0.71922371     0.04300
C789        C  0.27167421  0.98999088  0.73432984    -0.14900
C790        C  0.29241600  0.98652069  0.70250518    -0.08300
C791        C  0.25096721  0.98717441  0.59521960     0.05200
C792        C  0.25504467  0.96131492  0.57649996    -0.09400
C793        C  0.24517421  0.95504253  0.53422193     0.00200
C794        C  0.23052506  0.97495743  0.50935780     0.00100
C795        C  0.22700604  0.00116087  0.52780543    -0.12900
C796        C  0.23689840  0.00732012  0.57039386     0.00600
C797        C  0.25061633  0.92788409  0.51764192     0.39900
C798        C  0.23226780  0.03437455  0.58797363     0.36500
C799        C  0.30834492  0.98220611  0.62579646     0.36200
C800        C  0.22200123  0.00029100  0.74911067     0.37000
N801        N  0.25499856  0.90608025  0.50456302    -0.43800
N802        N  0.22845536  0.05604487  0.60205764    -0.44300
N803        N  0.20371920  0.00391344  0.77278662    -0.41600
N804        N  0.32587463  0.97827875  0.60081015    -0.43100
H805        H  0.31320235  0.98234955  0.71315615     0.13100
H806        H  0.21793401  0.99929733  0.66282089     0.09600
H807        H  0.26546901  0.94560190  0.59562421     0.10700
H808        H  0.21595671  0.01674101  0.50938135     0.16500
C809        C  0.31293256  0.90605084  0.34926893    -0.01700
C810        C  0.31023241  0.88310331  0.32133570     0.06900
C811        C  0.28408419  0.87526110  0.30708446    -0.07700
C812        C  0.26076543  0.88968123  0.32042497     0.04300
C813        C  0.26328472  0.91216566  0.34964681    -0.14900
C814        C  0.28956002  0.92030288  0.36326586    -0.08300
C815        C  0.33441803  0.86755119  0.30518588     0.05200
C816        C  0.35054458  0.85265896  0.33542085    -0.09400
C817        C  0.37330675  0.83752164  0.32098993     0.00200
C818        C  0.38034842  0.83738995  0.27552526     0.00100
C819        C  0.36384192  0.85199386  0.24540244    -0.12900
C820        C  0.34111369  0.86689873  0.25972915     0.00600
C821        C  0.38814813  0.82129718  0.35305403     0.39900
C822        C  0.32531809  0.88187464  0.22720354     0.36500
C823        C  0.33951672  0.91582273  0.36279700     0.36200
C824        C  0.23471286  0.88175199  0.30178404     0.37000
N825        N  0.39973909  0.80807115  0.37884944    -0.43800
N826        N  0.31258408  0.89378598  0.20114836    -0.44300
N827        N  0.21388019  0.87554891  0.28657246    -0.41600
N828        N  0.36085212  0.92371117  0.37341795    -0.43100
H829        H  0.29185772  0.93770343  0.38519081     0.13100
H830        H  0.28194270  0.85794794  0.28491363     0.09600
H831        H  0.34509439  0.85259863  0.37030480     0.10700
H832        H  0.36904237  0.85229224  0.21040442     0.16500
C833        C  0.37761786  0.41027165  0.37334952    -0.01700
C834        C  0.36494110  0.38465417  0.37944266     0.06900
C835        C  0.33624517  0.38365955  0.38324564    -0.07700
C836        C  0.32026613  0.40778286  0.38097019     0.04300
C837        C  0.33307736  0.43357355  0.37494391    -0.14900
C838        C  0.36189269  0.43411589  0.37153190    -0.08300
C839        C  0.38202247  0.35923045  0.38093516     0.05200
C840        C  0.39988072  0.35537438  0.41691759    -0.09400
C841        C  0.42165961  0.33672968  0.41436558     0.00200
C842        C  0.42603408  0.32154768  0.37520027     0.00100
C843        C  0.40655440  0.32328995  0.34100953    -0.12900
C844        C  0.38460406  0.34194966  0.34368337     0.00600
C845        C  0.44034914  0.33459697  0.45137660     0.39900
C846        C  0.36632765  0.34471511  0.30634759     0.36500
C847        C  0.40686396  0.41259550  0.36710675     0.36200
C848        C  0.29096843  0.40537370  0.38507856     0.37000
N849        N  0.45535559  0.33268702  0.48093202    -0.43800
N850        N  0.35152752  0.34697796  0.27659171    -0.44300
N851        N  0.26746018  0.40335023  0.38837347    -0.41600
N852        N  0.43024944  0.41449130  0.36186911    -0.43100
H853        H  0.37251102  0.45334464  0.36628379     0.13100
H854        H  0.32632102  0.36400512  0.38784012     0.09600
H855        H  0.39794599  0.36836063  0.44585627     0.10700
H856        H  0.40975486  0.31184510  0.31069418     0.16500
C857        C  0.40384990  0.10185786  0.85387497    -0.01700
C858        C  0.38128969  0.11267980  0.87699215     0.06900
C859        C  0.38297089  0.13924195  0.89442893    -0.07700
C860        C  0.40708240  0.15482750  0.88976223     0.04300
C861        C  0.43008963  0.14351546  0.86804581    -0.14900
C862        C  0.42787794  0.11712831  0.84984093    -0.08300
C863        C  0.35679604  0.09532726  0.88494253     0.05200
C864        C  0.35762752  0.07664902  0.92030941    -0.09400
C865        C  0.33955249  0.05445074  0.92189653     0.00200
C866        C  0.32013771  0.05075246  0.88763648     0.00100
C867        C  0.31731889  0.07111782  0.85499794    -0.12900
C868        C  0.33568730  0.09321483  0.85320188     0.00600
C869        C  0.34251449  0.03465171  0.95735406     0.39900
C870        C  0.33407973  0.11209332  0.81639526     0.36500
C871        C  0.40289055  0.07486464  0.83444813     0.36200
C872        C  0.40804995  0.18175968  0.90909733     0.37000
N873        N  0.34483586  0.01867370  0.98555134    -0.43800
N874        N  0.33282598  0.12721874  0.78683922    -0.44300
N875        N  0.40879143  0.20339135  0.92454462    -0.41600
N876        N  0.40202393  0.05328177  0.81882432    -0.43100
H877        H  0.44512110  0.10826146  0.83235452     0.13100
H878        H  0.36563163  0.14759233  0.91227575     0.09600
H879        H  0.37379463  0.07822090  0.94483209     0.10700
H880        H  0.30256927  0.06840346  0.82849066     0.16500
C881        C  0.47060195  0.23370696  0.06181316    -0.01700
C882        C  0.49037240  0.24993516  0.08339361     0.06900
C883        C  0.51430523  0.25706451  0.06066172    -0.07700
C884        C  0.51929762  0.24758724  0.01762899     0.04300
C885        C  0.50002281  0.23030389  0.99628081    -0.14900
C886        C  0.47545105  0.22417319  0.01855807    -0.08300
C887        C  0.48831163  0.25718274  0.13118312     0.05200
C888        C  0.49655442  0.23765616  0.16238394    -0.09400
C889        C  0.49857599  0.24410744  0.20746405     0.00200
C890        C  0.49193326  0.27091233  0.22265471     0.00100
C891        C  0.48307352  0.29031989  0.19106110    -0.12900
C892        C  0.48131262  0.28366244  0.14571784     0.00600
C893        C  0.50868244  0.22275855  0.23648527     0.39900
C894        C  0.47239225  0.30426703  0.11452425     0.36500
C895        C  0.44536205  0.22636627  0.08362388     0.36200
C896        C  0.54439511  0.25621660  0.99642986     0.37000
N897        N  0.51682120  0.20549796  0.25934619    -0.43800
N898        N  0.46516767  0.32069873  0.08938240    -0.44300
N899        N  0.56451588  0.26319229  0.97957835    -0.41600
N900        N  0.42503266  0.22053576  0.10092084    -0.43100
H901        H  0.46033604  0.21121554  0.00274585     0.13100
H902        H  0.52954336  0.26956068  0.07718132     0.09600
H903        H  0.50235010  0.21738841  0.15112850     0.10700
H904        H  0.47769591  0.31080147  0.20164760     0.16500
C905        C  0.47006281  0.24075566  0.56477263    -0.01700
C906        C  0.48772165  0.22086909  0.58317280     0.06900
C907        C  0.50875269  0.21002263  0.55698666    -0.07700
C908        C  0.51355976  0.22004376  0.51409069     0.04300
C909        C  0.49726074  0.24153300  0.49690310    -0.14900
C910        C  0.47493799  0.25094241  0.52192258    -0.08300
C911        C  0.48682526  0.21351437  0.63103077     0.05200
C912        C  0.47969072  0.18687868  0.64431992    -0.09400
C913        C  0.48074448  0.17906133  0.68926440     0.00200
C914        C  0.48951340  0.19809354  0.72168561     0.00100
C915        C  0.49614436  0.22484113  0.70792436    -0.12900
C916        C  0.49498635  0.23256905  0.66335940     0.00600
C917        C  0.47222699  0.15167772  0.70097052     0.39900
C918        C  0.50351387  0.25992855  0.65143065     0.36500
C919        C  0.44716752  0.25130907  0.58966883     0.36200
C920        C  0.53499979  0.20754061  0.48812919     0.37000
N921        N  0.46524994  0.12975421  0.71024600    -0.43800
N922        N  0.51036753  0.28185406  0.64198858    -0.44300
N923        N  0.55202989  0.19732713  0.46726695    -0.41600
N924        N  0.42878023  0.25967180  0.60965477    -0.43100
H925        H  0.46192037  0.26698403  0.50868034     0.13100
H926        H  0.52206163  0.19437155  0.57070438     0.09600
H927        H  0.47340158  0.17216442  0.61947898     0.10700
H928        H  0.50309415  0.23978133  0.73194168     0.16500
C929        C  0.89242133  0.84890469  0.66769371    -0.01700
C930        C  0.88156494  0.86328344  0.70437951     0.06900
C931        C  0.89100125  0.85660872  0.74701686    -0.07700
C932        C  0.91260557  0.83813149  0.75310468     0.04300
C933        C  0.92566531  0.82619752  0.71597109    -0.14900
C934        C  0.91447552  0.83070614  0.67365746    -0.08300
C935        C  0.86241862  0.88703973  0.69944908     0.05200
C936        C  0.83759808  0.88729880  0.72315931    -0.09400
C937        C  0.82126489  0.91101240  0.72524439     0.00200
C938        C  0.82973207  0.93519672  0.70325150     0.00100
C939        C  0.85391502  0.93442041  0.67794413    -0.12900
C940        C  0.87031467  0.91096229  0.67626937     0.00600
C941        C  0.79712745  0.91046180  0.75281231     0.41500
C942        C  0.89621390  0.91285653  0.65335176     0.36500
C943        C  0.88165506  0.85298927  0.62359309     0.36200
C944        C  0.92134888  0.83210837  0.79790512     0.37000
N945        N  0.77782802  0.90997756  0.77505379    -0.43800
N946        N  0.91691108  0.91450131  0.63487151    -0.44300
N947        N  0.92827637  0.82713221  0.83375789    -0.41600
N948        N  0.87299141  0.85630890  0.58825467    -0.43100
H949        H  0.92395343  0.82132298  0.64495831     0.13100
H950        H  0.88233353  0.86686971  0.77561286     0.09600
H951        H  0.83151480  0.86918835  0.74161075     0.10700
H952        H  0.86079261  0.95275714  0.66083244     0.16500
C953        C  0.69106790  0.10809116  0.76072982    -0.01700
C954        C  0.66471705  0.09676297  0.75735796     0.06900
C955        C  0.66145976  0.07046702  0.73980707    -0.07700
C956        C  0.68419079  0.05511758  0.72617682     0.04300
C957        C  0.71086890  0.06633418  0.72980185    -0.14900
C958        C  0.71374755  0.09300166  0.74683961    -0.08300
C959        C  0.64055019  0.11143751  0.77474520     0.05200
C960        C  0.62310387  0.12530931  0.74535953    -0.09400
C961        C  0.60029381  0.13974364  0.76116270     0.00200
C962        C  0.59482180  0.14039031  0.80722510     0.00100
C963        C  0.61258088  0.12654769  0.83640921    -0.12900
C964        C  0.63516222  0.11205348  0.82057323     0.00600
C965        C  0.58338460  0.15427083  0.72963281     0.39900
C966        C  0.65229908  0.09750081  0.85181003     0.36500
C967        C  0.69533771  0.13503136  0.77903850     0.36200
C968        C  0.67930236  0.02799857  0.70908590     0.37000
N969        N  0.56985080  0.16596143  0.70438131    -0.43800
N970        N  0.66604584  0.08576610  0.87669683    -0.44300
N971        N  0.67523174  0.00623788  0.69556811    -0.41600
N972        N  0.69877579  0.15656784  0.79387066    -0.43100
H973        H  0.73388613  0.10209085  0.75013361     0.13100
H974        H  0.64110241  0.06172032  0.73759702     0.09600
H975        H  0.62745141  0.12498767  0.71007173     0.10700
H976        H  0.60847396  0.12647294  0.87178488     0.16500
C977        C  0.56857741  0.88150731  0.21103789    -0.01700
C978        C  0.59420694  0.86881937  0.20532258     0.06900
C979        C  0.59552597  0.84005863  0.20497709    -0.07700
C980        C  0.57157589  0.82403284  0.20945564     0.04300
C981        C  0.54571729  0.83691676  0.21454032    -0.14900
C982        C  0.54493616  0.86574559  0.21528728    -0.08300
C983        C  0.61924268  0.88611395  0.20037166     0.05200
C984        C  0.63658031  0.88977953  0.23706045    -0.09400
C985        C  0.65463691  0.91220967  0.23900450     0.00200
C986        C  0.65513477  0.93156841  0.20405118     0.00100
C987        C  0.63973334  0.92632815  0.16568887    -0.12900
C988        C  0.62227561  0.90361094  0.16330865     0.00600
C989        C  0.67033793  0.91641430  0.27895944     0.39900
C990        C  0.60603192  0.89976887  0.12379698     0.36500
C991        C  0.56601288  0.91093584  0.21352978     0.36200
C992        C  0.57423484  0.79462886  0.20836745     0.37000
N993        N  0.68295242  0.91977881  0.31097018    -0.43800
N994        N  0.59301025  0.89661708  0.09216158    -0.44300
N995        N  0.57642889  0.77104945  0.20752410    -0.41600
N996        N  0.56402527  0.93450010  0.21545102    -0.43100
H997        H  0.52566002  0.87637508  0.21975934     0.13100
H998        H  0.61521608  0.83014903  0.20091298     0.09600
H999        H  0.63443164  0.87642539  0.26566911     0.10700
H1000       H  0.64020845  0.94087888  0.13842331     0.16500
C1001       C  0.62679925  0.12451328  0.32632330    -0.01700
C1002       C  0.61310022  0.14332619  0.29839647     0.06900
C1003       C  0.61441322  0.13957544  0.25237893    -0.07700
C1004       C  0.62837880  0.11726386  0.23392620     0.04300
C1005       C  0.64168252  0.09791743  0.26181684    -0.14900
C1006       C  0.64064999  0.10195583  0.30800455    -0.08300
C1007       C  0.59701747  0.16698518  0.31593533     0.05200
C1008       C  0.60571886  0.19367657  0.30614262    -0.09400
C1009       C  0.59034017  0.21653984  0.31925212     0.00200
C1010       C  0.56541164  0.21300306  0.34287575     0.00100
C1011       C  0.55669019  0.18616952  0.35234884    -0.12900
C1012       C  0.57217182  0.16334702  0.33913583     0.00600
C1013       C  0.60026616  0.24325113  0.30621540     0.39900
C1014       C  0.56164736  0.13633268  0.34834459     0.36500
C1015       C  0.62750563  0.12835494  0.37374923     0.36200
C1016       C  0.62748760  0.11424266  0.18628253     0.37000
N1017       N  0.60826912  0.26459492  0.29562969    -0.43800
N1018       N  0.55322726  0.11464982  0.35565777    -0.44300
N1019       N  0.62665233  0.11191963  0.14810741    -0.41600
N1020       N  0.62818151  0.13149811  0.41176302    -0.43100
H1021       H  0.65092930  0.08759614  0.32989575     0.13100
H1022       H  0.60395234  0.15394850  0.23070137     0.09600
H1023       H  0.62451989  0.19663924  0.28760276     0.10700
H1024       H  0.53768218  0.18294546  0.37016320     0.16500
C1025       C  0.57219486  0.05013836  0.09251585    -0.01700
C1026       C  0.57934194  0.05710072  0.04857227     0.06900
C1027       C  0.60621036  0.05259198  0.03408209    -0.07700
C1028       C  0.62639567  0.04328303  0.06317801     0.04300
C1029       C  0.61982898  0.03846500  0.10839315    -0.14900
C1030       C  0.59233604  0.04073249  0.12183577    -0.08300
C1031       C  0.56109573  0.07357132  0.01955716     0.05200
C1032       C  0.55209998  0.09898009  0.03530699    -0.09400
C1033       C  0.54086017  0.11844592  0.00664117     0.00200
C1034       C  0.53911847  0.11286926  0.96060544     0.00100
C1035       C  0.54581781  0.08645678  0.94561908    -0.12900
C1036       C  0.55668906  0.06684691  0.97465363     0.00600
C1037       C  0.53240559  0.14424559  0.02554867     0.39900
C1038       C  0.56433231  0.04041673  0.95728967     0.36500
C1039       C  0.54468692  0.05385726  0.10892905     0.36200
C1040       C  0.65381164  0.04052539  0.04571790     0.37000
N1041       N  0.52569322  0.16488043  0.04083520    -0.43800
N1042       N  0.57055699  0.01925910  0.94341587    -0.44300
N1043       N  0.67573941  0.03854439  0.03156048    -0.41600
N1044       N  0.52271801  0.05708127  0.12225861    -0.43100
H1045       H  0.58671695  0.03669771  0.15604778     0.13100
H1046       H  0.61195905  0.05818122  0.00046816     0.09600
H1047       H  0.55547589  0.10439000  0.06975763     0.10700
H1048       H  0.54406419  0.08151559  0.91068994     0.16500
C1049       C  0.78803653  0.98695036  0.92832112    -0.01700
C1050       C  0.76219066  0.99539125  0.94415107     0.06900
C1051       C  0.74316280  0.00606503  0.91401753    -0.07700
C1052       C  0.74912528  0.00810856  0.86878683     0.04300
C1053       C  0.77478150  0.99901012  0.85230183    -0.14900
C1054       C  0.79405314  0.98865743  0.88277033    -0.08300
C1055       C  0.75474434  0.99508200  0.99211062     0.05200
C1056       C  0.76954566  0.01158421  0.02159249    -0.09400
C1057       C  0.76067187  0.01528028  0.06535861     0.00200
C1058       C  0.73662262  0.00219383  0.08043909     0.00100
C1059       C  0.72263459  0.98449500  0.05179475    -0.12900
C1060       C  0.73130001  0.98108019  0.00779386     0.00600
C1061       C  0.77657225  0.03263310  0.09421990     0.39900
C1062       C  0.71535190  0.96375413  0.97896138     0.36500
C1063       C  0.80864233  0.97638555  0.95809617     0.36200
C1064       C  0.72871781  0.02091975  0.84098276     0.37000
N1065       N  0.78932871  0.04647804  0.11741882    -0.43800
N1066       N  0.70247610  0.95002267  0.95575125    -0.44300
N1067       N  0.71207452  0.03133133  0.81947299    -0.41600
N1068       N  0.82525227  0.96807886  0.98197045    -0.43100
H1069       H  0.81387869  0.98183034  0.87104895     0.13100
H1070       H  0.72362273  0.01347074  0.92617764     0.09600
H1071       H  0.78747327  0.02251829  0.00986017     0.10700
H1072       H  0.70413335  0.97438610  0.06314151     0.16500
C1073       C  0.69226289  0.00655169  0.42916774    -0.01700
C1074       C  0.71762124  0.99544641  0.44251658     0.06900
C1075       C  0.73406552  0.98210283  0.41142040    -0.07700
C1076       C  0.72647696  0.98122028  0.36678607     0.04300
C1077       C  0.70207039  0.99421567  0.35255578    -0.14900
C1078       C  0.68465914  0.00588627  0.38434564    -0.08300
C1079       C  0.72840097  0.99915787  0.48795459     0.05200
C1080       C  0.73071508  0.97648091  0.51633389    -0.09400
C1081       C  0.74134041  0.97928758  0.55932697     0.00200
C1082       C  0.74998920  0.00530706  0.57437540     0.00100
C1083       C  0.74824992  0.02776825  0.54500963    -0.12900
C1084       C  0.73766976  0.02490746  0.50229122     0.00600
C1085       C  0.74255060  0.95523543  0.58715466     0.39900
C1086       C  0.73703325  0.04860654  0.47344468     0.36500
C1087       C  0.67403743  0.01906132  0.46085574     0.36200
C1088       C  0.74415807  0.96679906  0.33637441     0.37000
N1089       N  0.74347419  0.93585237  0.60928317    -0.43800
N1090       N  0.73655883  0.06760974  0.45041685    -0.44300
N1091       N  0.75828141  0.95517485  0.31205513    -0.41600
N1092       N  0.65942985  0.02896064  0.48639763    -0.43100
H1093       H  0.66574694  0.01560348  0.37395454     0.13100
H1094       H  0.75332039  0.97308931  0.42186991     0.09600
H1095       H  0.72398465  0.95655938  0.50489910     0.10700
H1096       H  0.75522877  0.04783598  0.55531824     0.16500
C1097       C  0.12025969  0.40103337  0.83026633    -0.01700
C1098       C  0.11448956  0.38806843  0.87120858     0.06900
C1099       C  0.12884523  0.39658073  0.90925273    -0.07700
C1100       C  0.14695393  0.41895120  0.90752055     0.04300
C1101       C  0.15157014  0.43265005  0.86694038    -0.14900
C1102       C  0.13879814  0.42291485  0.82845705    -0.08300
C1103       C  0.09094232  0.36860969  0.87568066     0.05200
C1104       C  0.09057967  0.34402768  0.85148303    -0.09400
C1105       C  0.06693837  0.32754027  0.84983091     0.00200
C1106       C  0.04303825  0.33553123  0.87292192     0.00100
C1107       C  0.04404071  0.35939208  0.89887675    -0.12900
C1108       C  0.06749086  0.37584367  0.90035586     0.00600
C1109       C  0.06715403  0.30379286  0.82151346     0.39900
C1110       C  0.06624780  0.40109000  0.92506778     0.36500
C1111       C  0.10538586  0.39418070  0.79044566     0.36200
C1112       C  0.15899449  0.42874942  0.94822005     0.37000
N1113       N  0.06730679  0.28480438  0.79868176    -0.43800
N1114       N  0.06529450  0.42132826  0.94482878    -0.44300
N1115       N  0.16855450  0.43664533  0.98088536    -0.41600
N1116       N  0.09336604  0.38884003  0.75855771    -0.43100
H1117       H  0.14170026  0.43383405  0.79739727     0.13100
H1118       H  0.12456629  0.38683999  0.94087689     0.09600
H1119       H  0.10845117  0.33831885  0.83230342     0.10700
H1120       H  0.02594574  0.36587517  0.91685939     0.16500
C1121       C  0.85956543  0.14294302  0.74890217    -0.01700
C1122       C  0.86701344  0.14572987  0.79377984     0.06900
C1123       C  0.85842878  0.12585691  0.82456104    -0.07700
C1124       C  0.84289954  0.10316217  0.81104927     0.04300
C1125       C  0.83584750  0.10010158  0.76576738    -0.14900
C1126       C  0.84418076  0.12043088  0.73541478    -0.08300
C1127       C  0.88267603  0.16998126  0.80905741     0.05200
C1128       C  0.87076215  0.19583796  0.80421202    -0.09400
C1129       C  0.88494996  0.21955281  0.81586360     0.00200
C1130       C  0.91159271  0.21769716  0.83458420     0.00100
C1131       C  0.92359190  0.19161487  0.83900735    -0.12900
C1132       C  0.90945836  0.16790629  0.82611347     0.00600
C1133       C  0.87172250  0.24534585  0.80628709     0.39900
C1134       C  0.92310118  0.14176722  0.82922427     0.36500
C1135       C  0.86805601  0.16259035  0.71570449     0.36200
C1136       C  0.83413040  0.08379306  0.84443467     0.37000
N1137       N  0.86095141  0.26582223  0.79797422    -0.43800
N1138       N  0.93399145  0.12077199  0.83139234    -0.44300
N1139       N  0.82702551  0.06831680  0.87122084    -0.41600
N1140       N  0.87476817  0.17833308  0.68907383    -0.43100
H1141       H  0.83926505  0.11852372  0.70047464     0.13100
H1142       H  0.86368444  0.12824337  0.85929134     0.09600
H1143       H  0.85031999  0.19750222  0.79037683     0.10700
H1144       H  0.94403000  0.18965685  0.85264552     0.16500
C1145       C  0.08697459  0.12383550  0.33634672    -0.01700
C1146       C  0.09664574  0.11639472  0.37904275     0.06900
C1147       C  0.08484778  0.12905129  0.41629303    -0.07700
C1148       C  0.06205544  0.14633104  0.41188069     0.04300
C1149       C  0.05154408  0.15242871  0.36944974    -0.14900
C1150       C  0.06473083  0.14180766  0.33200196    -0.08300
C1151       C  0.11614354  0.09299173  0.38542378     0.05200
C1152       C  0.14103908  0.09231128  0.36189123    -0.09400
C1153       C  0.15698799  0.06836659  0.36019750     0.00200
C1154       C  0.14864859  0.04481107  0.38395446     0.00100
C1155       C  0.12512160  0.04639166  0.41060199    -0.12900
C1156       C  0.10874807  0.06984228  0.41111716     0.00600
C1157       C  0.18015350  0.06777024  0.33050106     0.39900
C1158       C  0.08337081  0.06854561  0.43563770     0.36500
C1159       C  0.09793231  0.11167113  0.29653389     0.36200
C1160       C  0.04843925  0.15571806  0.45146515     0.37000
N1161       N  0.19854729  0.06717671  0.30633737    -0.43800
N1162       N  0.06310434  0.06735509  0.45541736    -0.44300
N1163       N  0.03747293  0.16296187  0.48333334    -0.41600
N1164       N  0.10683075  0.10199891  0.26465253    -0.43100
H1165       H  0.05640788  0.14605667  0.29931888     0.13100
H1166       H  0.09229656  0.12394899  0.44919366     0.09600
H1167       H  0.14721185  0.11004022  0.34259913     0.10700
H1168       H  0.11857176  0.02855754  0.42936983     0.16500
C1169       C  0.84182455  0.11745732  0.32993307    -0.01700
C1170       C  0.83788149  0.11306568  0.28416877     0.06900
C1171       C  0.85695845  0.12396635  0.25404951    -0.07700
C1172       C  0.88003245  0.13849272  0.26889063     0.04300
C1173       C  0.88447386  0.14221410  0.31495467    -0.14900
C1174       C  0.86481901  0.13185433  0.34481559    -0.08300
C1175       C  0.81390964  0.09719583  0.26748015     0.05200
C1176       C  0.78742920  0.10683653  0.27616317    -0.09400
C1177       C  0.76428778  0.09189285  0.26338277     0.00200
C1178       C  0.76729253  0.06702499  0.23970690     0.00100
C1179       C  0.79389696  0.05727416  0.23141423    -0.12900
C1180       C  0.81704788  0.07200251  0.24527095     0.00600
C1181       C  0.73784975  0.10191936  0.27739197     0.39900
C1182       C  0.84380790  0.06034752  0.23797888     0.36500
C1183       C  0.82301302  0.10650517  0.36243006     0.36200
C1184       C  0.89845651  0.14964105  0.23602580     0.37000
N1185       N  0.71671204  0.10980532  0.28905128    -0.43800
N1186       N  0.86529166  0.05099258  0.23246791    -0.44300
N1187       N  0.91319657  0.15865636  0.20971079    -0.41600
N1188       N  0.80782496  0.09772834  0.38827431    -0.43100
H1189       H  0.86770528  0.13433447  0.38025055     0.13100
H1190       H  0.85377853  0.12110173  0.21875233     0.09600
H1191       H  0.78484525  0.12592092  0.29397212     0.10700
H1192       H  0.79668223  0.03808944  0.21402957     0.16500
C1193       C  0.92203593  0.07020116  0.47629014    -0.01700
C1194       C  0.92342499  0.07572413  0.52213337     0.06900
C1195       C  0.94041790  0.09682969  0.53711128    -0.07700
C1196       C  0.95269279  0.11487037  0.50690817     0.04300
C1197       C  0.94761859  0.11197347  0.46092521    -0.14900
C1198       C  0.93401587  0.08839055  0.44601313    -0.08300
C1199       C  0.90279858  0.06438907  0.55324719     0.05200
C1200       C  0.91085590  0.04882322  0.59026052    -0.09400
C1201       C  0.89147141  0.03994874  0.62166994     0.00200
C1202       C  0.86347102  0.04650689  0.61575899     0.00100
C1203       C  0.85572875  0.06206399  0.57850453    -0.12900
C1204       C  0.87499218  0.07139084  0.54802260     0.00600
C1205       C  0.90089340  0.02431826  0.65942002     0.39900
C1206       C  0.86587398  0.08964687  0.51314283     0.36500
C1207       C  0.90629209  0.04741630  0.45967551     0.36200
C1208       C  0.96924711  0.13687369  0.52416772     0.37000
N1209       N  0.90846419  0.01188617  0.68978848    -0.43800
N1210       N  0.85866207  0.10437907  0.48535266    -0.44300
N1211       N  0.98255267  0.15439055  0.53827865    -0.41600
N1212       N  0.89359744  0.02917464  0.44652733    -0.43100
H1213       H  0.93058222  0.08539506  0.41081927     0.13100
H1214       H  0.94217576  0.10066604  0.57242173     0.09600
H1215       H  0.93232503  0.04395552  0.59488476     0.10700
H1216       H  0.83453425  0.06806440  0.57392974     0.16500
C1217       C  0.97989317  0.19513142  0.14556159    -0.01700
C1218       C  0.98570519  0.22244775  0.13307984     0.06900
C1219       C  0.99357380  0.24097381  0.16611501    -0.07700
C1220       C  0.99468065  0.23309498  0.21090729     0.04300
C1221       C  0.98677660  0.20626743  0.22401283    -0.14900
C1222       C  0.98025553  0.18734816  0.19053608    -0.08300
C1223       C  0.98158513  0.23249343  0.08650364     0.05200
C1224       C  0.95561678  0.22967397  0.06732128    -0.09400
C1225       C  0.95014629  0.23903804  0.02425199     0.00200
C1226       C  0.97108391  0.25176994  0.99871524     0.00100
C1227       C  0.99709894  0.25479257  0.01819824    -0.12900
C1228       C  0.00240177  0.24553622  0.06163773     0.00600
C1229       C  0.92266084  0.23516854  0.00774451     0.39900
C1230       C  0.02942998  0.24952303  0.07976978     0.36500
C1231       C  0.97371857  0.17466574  0.11261421     0.36200
C1232       C  0.00459867  0.25299473  0.24235323     0.37000
N1233       N  0.90058430  0.23210569  0.99476425    -0.43800
N1234       N  0.05106510  0.25293411  0.09434296    -0.44300
N1235       N  0.01280080  0.26888050  0.26743407    -0.41600
N1236       N  0.96892098  0.15836591  0.08597149    -0.43100
H1237       H  0.97480122  0.16654559  0.19947407     0.13100
H1238       H  0.99836890  0.26191923  0.15700316     0.09600
H1239       H  0.93930132  0.22027422  0.08646042     0.10700
H1240       H  0.01335286  0.26471766  0.99967306     0.16500
C1241       C  0.98497325  0.24616775  0.66584974    -0.01700
C1242       C  0.99126953  0.26540039  0.63249819     0.06900
C1243       C  0.99478100  0.29297875  0.64440938    -0.07700
C1244       C  0.99188270  0.30153471  0.68879370     0.04300
C1245       C  0.98488516  0.28228121  0.72224684    -0.14900
C1246       C  0.98196924  0.25461101  0.70983861    -0.08300
C1247       C  0.99068567  0.25730963  0.58483037     0.05200
C1248       C  0.96825121  0.26561500  0.55923856    -0.09400
C1249       C  0.96358342  0.25459537  0.51709995     0.00200
C1250       C  0.98182210  0.23490146  0.49932204     0.00100
C1251       C  0.00540686  0.22808771  0.52367960    -0.12900
C1252       C  0.00980598  0.23887989  0.56630403     0.00600
C1253       C  0.93972348  0.26386823  0.49304710     0.39900
C1254       C  0.03355833  0.23010631  0.59101939     0.36500
C1255       C  0.97999769  0.21776578  0.65536404     0.36200
C1256       C  0.99631743  0.33005265  0.69875586     0.37000
N1257       N  0.92055717  0.27128119  0.47390928    -0.43800
N1258       N  0.05254252  0.22295738  0.61087905    -0.44300
N1259       N  0.99998250  0.35292944  0.70660528    -0.41600
N1260       N  0.97602427  0.19504148  0.64681598    -0.43100
H1261       H  0.97652995  0.23930872  0.73445947     0.13100
H1262       H  0.99940808  0.30793001  0.61879265     0.09600
H1263       H  0.95356385  0.27985777  0.57315355     0.10700
H1264       H  0.01979824  0.21341702  0.51029367     0.16500
C1265       C  0.85696533  0.57816529  0.25562969    -0.01700
C1266       C  0.86012345  0.59269547  0.21528552     0.06900
C1267       C  0.84469454  0.58433967  0.17825361    -0.07700
C1268       C  0.82736187  0.56133677  0.18047861     0.04300
C1269       C  0.82531393  0.54617045  0.22019600    -0.14900
C1270       C  0.83973497  0.55519089  0.25768884    -0.08300
C1271       C  0.88254680  0.61334719  0.20939932     0.05200
C1272       C  0.90451366  0.60654204  0.18166432    -0.09400
C1273       C  0.92814221  0.62276012  0.17986446     0.00200
C1274       C  0.93043669  0.64648899  0.20655438     0.00100
C1275       C  0.90753896  0.65454535  0.23163036    -0.12900
C1276       C  0.88372050  0.63823983  0.23315942     0.00600
C1277       C  0.94982214  0.61433272  0.15035922     0.39900
C1278       C  0.86092487  0.64718614  0.25983021     0.36500
C1279       C  0.87290162  0.58500603  0.29438478     0.36200
C1280       C  0.81324764  0.55255362  0.14096899     0.37000
N1281       N  0.96699246  0.60750251  0.12640914    -0.43800
N1282       N  0.84262527  0.65440238  0.28116057    -0.44300
N1283       N  0.80187877  0.54539326  0.10939966    -0.41600
N1284       N  0.88565913  0.59052454  0.32543615    -0.43100
H1285       H  0.83866860  0.54332002  0.28814873     0.13100
H1286       H  0.84717244  0.59507918  0.14695981     0.09600
H1287       H  0.90365643  0.58778178  0.16256483     0.10700
H1288       H  0.90873727  0.67280162  0.25188144     0.16500
C1289       C  0.63155293  0.36538618  0.32697314    -0.01700
C1290       C  0.63720968  0.36728399  0.28125385     0.06900
C1291       C  0.61975577  0.35414600  0.25104333    -0.07700
C1292       C  0.59657509  0.33966729  0.26580081     0.04300
C1293       C  0.59097326  0.33764732  0.31179972    -0.14900
C1294       C  0.60880124  0.35061893  0.34177095    -0.08300
C1295       C  0.66149413  0.38268717  0.26485384     0.05200
C1296       C  0.68393339  0.36815241  0.24823521    -0.09400
C1297       C  0.70808956  0.38167441  0.23579290     0.00200
C1298       C  0.71011445  0.41058305  0.23979120     0.00100
C1299       C  0.68717966  0.42507944  0.25542767    -0.12900
C1300       C  0.66310415  0.41143209  0.26793126     0.00600
C1301       C  0.73013618  0.36519137  0.21841589     0.39900
C1302       C  0.64022885  0.42727741  0.28395382     0.36500
C1303       C  0.64895248  0.37837109  0.35939538     0.36200
C1304       C  0.57916527  0.32695031  0.23311419     0.37000
N1305       N  0.74774519  0.35190215  0.20450554    -0.43800
N1306       N  0.62181991  0.43980722  0.29694667    -0.44300
N1307       N  0.56512234  0.31686471  0.20692781    -0.41600
N1308       N  0.66290144  0.38894536  0.38517864    -0.43100
H1309       H  0.60474686  0.34965791  0.37712818     0.13100
H1310       H  0.62410716  0.35548549  0.21581511     0.09600
H1311       H  0.68271450  0.34603966  0.24569394     0.10700
H1312       H  0.68812163  0.44716424  0.25851016     0.16500
C1313       C  0.86929122  0.28447588  0.33544525    -0.01700
C1314       C  0.88111375  0.31012277  0.32622705     0.06900
C1315       C  0.90946133  0.31337170  0.33079263    -0.07700
C1316       C  0.92624623  0.29132374  0.34327467     0.04300
C1317       C  0.91458469  0.26516661  0.35138557    -0.14900
C1318       C  0.88593300  0.26237306  0.34773737    -0.08300
C1319       C  0.86450621  0.33340044  0.30925649     0.05200
C1320       C  0.85762457  0.35495841  0.33768503    -0.09400
C1321       C  0.84296781  0.37779508  0.32206220     0.00200
C1322       C  0.83520117  0.37948017  0.27673341     0.00100
C1323       C  0.84167775  0.35732127  0.24880461    -0.12900
C1324       C  0.85614419  0.33454037  0.26460826     0.00600
C1325       C  0.83617550  0.39891959  0.35355001     0.39900
C1326       C  0.86292083  0.31284854  0.23409407     0.36500
C1327       C  0.84008138  0.28040468  0.33257444     0.36200
C1328       C  0.95526337  0.29636803  0.34688527     0.37000
N1329       N  0.83071296  0.41572859  0.37900623    -0.43800
N1330       N  0.86839928  0.29541533  0.20977820    -0.44300
N1331       N  0.97849818  0.30057192  0.34982767    -0.41600
N1332       N  0.81666580  0.27713741  0.33042729    -0.43100
H1333       H  0.87631560  0.24277622  0.35430017     0.13100
H1334       H  0.91857132  0.33316382  0.32374379     0.09600
H1335       H  0.86384215  0.35396149  0.37220298     0.10700
H1336       H  0.83602614  0.35796786  0.21403186     0.16500
C1337       C  0.92236089  0.41290111  0.98354468    -0.01700
C1338       C  0.91554373  0.40473135  0.02716896     0.06900
C1339       C  0.91982870  0.37744885  0.03973150    -0.07700
C1340       C  0.92936379  0.35807483  0.00963177     0.04300
C1341       C  0.93419675  0.36562530  0.96471625    -0.14900
C1342       C  0.93150774  0.39339195  0.95277363    -0.08300
C1343       C  0.90015088  0.42251702  0.05856315     0.05200
C1344       C  0.87495713  0.43333554  0.04476718    -0.09400
C1345       C  0.85598652  0.44313722  0.07559402     0.00200
C1346       C  0.86166291  0.44122851  0.12161852     0.00100
C1347       C  0.88806155  0.43332844  0.13499106    -0.12900
C1348       C  0.90733491  0.42425307  0.10389823     0.00600
C1349       C  0.83072369  0.45450322  0.05879721     0.39900
C1350       C  0.93389128  0.41554019  0.11950337     0.36500
C1351       C  0.91972429  0.44103853  0.96943560     0.36200
C1352       C  0.93281890  0.33047899  0.02621122     0.37000
N1353       N  0.81069422  0.46382993  0.04493235    -0.43800
N1354       N  0.95516513  0.40851074  0.13198348    -0.44300
N1355       N  0.93543840  0.30845411  0.03983049    -0.41600
N1356       N  0.91762088  0.46359547  0.95809878    -0.43100
H1357       H  0.93557532  0.39978826  0.91892564     0.13100
H1358       H  0.91435054  0.37080933  0.07296224     0.09600
H1359       H  0.86924465  0.43248478  0.01002667     0.10700
H1360       H  0.89317434  0.43260006  0.16998629     0.16500
C1361       C  0.62697494  0.58891388  0.67356076    -0.01700
C1362       C  0.61258103  0.59897480  0.71080428     0.06900
C1363       C  0.61686532  0.58644892  0.75225897    -0.07700
C1364       C  0.63353259  0.56323748  0.75638258     0.04300
C1365       C  0.64601388  0.55187191  0.71851843    -0.14900
C1366       C  0.64332926  0.56534447  0.67756776    -0.08300
C1367       C  0.59012900  0.61961772  0.70652453     0.05200
C1368       C  0.56783059  0.61350743  0.67891436    -0.09400
C1369       C  0.54403165  0.62947623  0.67949822     0.00200
C1370       C  0.54191532  0.65192862  0.70883445     0.00100
C1371       C  0.56496119  0.65932039  0.73396046    -0.12900
C1372       C  0.58892107  0.64338724  0.73304006     0.00600
C1373       C  0.52204528  0.62227832  0.64966469     0.39900
C1374       C  0.61184730  0.65154972  0.76008859     0.36500
C1375       C  0.62479823  0.60216718  0.63083458     0.36200
C1376       C  0.63644745  0.55056452  0.79949392     0.37000
N1377       N  0.50454743  0.61657767  0.62552957    -0.43800
N1378       N  0.63025507  0.65814275  0.78169883    -0.44300
N1379       N  0.63886997  0.54050326  0.83408813    -0.41600
N1380       N  0.62308488  0.61293447  0.59668855    -0.43100
H1381       H  0.65303453  0.55679333  0.64838473     0.13100
H1382       H  0.60594502  0.59389095  0.78111904     0.09600
H1383       H  0.56853590  0.59544825  0.65811789     0.10700
H1384       H  0.56379957  0.67673160  0.75609355     0.16500
C1385       C  0.60323859  0.28939716  0.83137584    -0.01700
C1386       C  0.58933461  0.31241749  0.81440959     0.06900
C1387       C  0.56084810  0.31122257  0.80911299    -0.07700
C1388       C  0.54603403  0.28770422  0.82098461     0.04300
C1389       C  0.55981944  0.26462952  0.83875478    -0.14900
C1390       C  0.58850789  0.26589607  0.84342977    -0.08300
C1391       C  0.60421878  0.33725867  0.79904381     0.05200
C1392       C  0.60661184  0.34183214  0.75338932    -0.09400
C1393       C  0.61989001  0.36508898  0.73682500     0.00200
C1394       C  0.63148326  0.38447136  0.76637283     0.00100
C1395       C  0.62867966  0.37999572  0.81232085    -0.12900
C1396       C  0.61522118  0.35660771  0.82874549     0.00600
C1397       C  0.62005664  0.36895934  0.68926777     0.39900
C1398       C  0.61236579  0.35310211  0.87608371     0.36500
C1399       C  0.63267853  0.28915242  0.83552683     0.36200
C1400       C  0.51692588  0.28760992  0.81288248     0.37000
N1401       N  0.62008417  0.37207884  0.65118650    -0.43800
N1402       N  0.60996865  0.35022888  0.91400916    -0.44300
N1403       N  0.49360433  0.28757823  0.80620793    -0.41600
N1404       N  0.65627602  0.28886627  0.83876018    -0.43100
H1405       H  0.59960004  0.24845394  0.85666918     0.13100
H1406       H  0.55016955  0.32871866  0.79513745     0.09600
H1407       H  0.59778366  0.32718738  0.73050463     0.10700
H1408       H  0.63707762  0.39471402  0.83546236     0.16500
C1409       C  0.60285947  0.42334073  0.53961467    -0.01700
C1410       C  0.57483047  0.41939001  0.54896946     0.06900
C1411       C  0.56473483  0.42798180  0.59031018    -0.07700
C1412       C  0.58218623  0.43902066  0.62283608     0.04300
C1413       C  0.61060309  0.44176433  0.61431289    -0.14900
C1414       C  0.62018473  0.43474174  0.57166963    -0.08300
C1415       C  0.55712138  0.40240194  0.51928670     0.05200
C1416       C  0.54716060  0.37748033  0.53585717    -0.09400
C1417       C  0.53507358  0.35812031  0.50783562     0.00200
C1418       C  0.53332026  0.36316706  0.46151211     0.00100
C1419       C  0.54073663  0.38933225  0.44575899    -0.12900
C1420       C  0.55226409  0.40896703  0.47425880     0.00600
C1421       C  0.52534259  0.33300673  0.52775791     0.39900
C1422       C  0.55930252  0.43552709  0.45649723     0.36500
C1423       C  0.61495942  0.41359788  0.49889665     0.36200
C1424       C  0.57037395  0.44603827  0.66514740     0.37000
N1425       N  0.51752057  0.31291334  0.54376561    -0.43800
N1426       N  0.56481704  0.45685022  0.44224645    -0.44300
N1427       N  0.56079105  0.45158282  0.69905017    -0.41600
N1428       N  0.62462093  0.40572754  0.46630410    -0.43100
H1429       H  0.64177040  0.43661238  0.56388999     0.13100
H1430       H  0.54326197  0.42489622  0.59793895     0.09600
H1431       H  0.55002428  0.37252681  0.57067092     0.10700
H1432       H  0.53879579  0.39408563  0.41073453     0.16500
C1433       C  0.80539035  0.41474333  0.76974976    -0.01700
C1434       C  0.80697960  0.38623282  0.76297457     0.06900
C1435       C  0.78428029  0.37244646  0.74561531    -0.07700
C1436       C  0.76025973  0.38651575  0.73459346     0.04300
C1437       C  0.75863821  0.41526590  0.74072385    -0.14900
C1438       C  0.78151218  0.42900571  0.75817947    -0.08300
C1439       C  0.83132448  0.36998970  0.77657466     0.05200
C1440       C  0.82826061  0.35060825  0.81054167    -0.09400
C1441       C  0.85067890  0.33571118  0.82643282     0.00200
C1442       C  0.87704825  0.33996300  0.80792811     0.00100
C1443       C  0.87974757  0.35845899  0.77228682    -0.12900
C1444       C  0.85721675  0.37345547  0.75663894     0.00600
C1445       C  0.84574950  0.31631330  0.86183059     0.39900
C1446       C  0.86116874  0.39234472  0.72026002     0.36500
C1447       C  0.82757460  0.42959125  0.79018983     0.36200
C1448       C  0.73791269  0.37073026  0.71652143     0.37000
N1449       N  0.84165746  0.30078514  0.89015067    -0.43800
N1450       N  0.86435290  0.40758907  0.69124486    -0.44300
N1451       N  0.71998933  0.35804328  0.70221007    -0.41600
N1452       N  0.84539626  0.44140172  0.80662226    -0.43100
H1453       H  0.78060048  0.45091014  0.76364430     0.13100
H1454       H  0.78533965  0.35047517  0.74081066     0.09600
H1455       H  0.80827183  0.34755037  0.82543088     0.10700
H1456       H  0.89967537  0.36193393  0.75748618     0.16500
C1457       C  0.68765636  0.47009306  0.93848606    -0.01700
C1458       C  0.71065431  0.48548508  0.95236972     0.06900
C1459       C  0.72347460  0.50274079  0.92138057    -0.07700
C1460       C  0.71474218  0.50371838  0.87697772     0.04300
C1461       C  0.69283353  0.48701637  0.86241843    -0.14900
C1462       C  0.67889484  0.47105525  0.89399019    -0.08300
C1463       C  0.72300988  0.48189550  0.99764769     0.05200
C1464       C  0.73253988  0.45589661  0.00990849    -0.09400
C1465       C  0.74418218  0.45100799  0.05169374     0.00200
C1466       C  0.74639089  0.47249610  0.08323425     0.00100
C1467       C  0.73767685  0.49883342  0.07028681    -0.12900
C1468       C  0.72624197  0.50366577  0.02799010     0.00600
C1469       C  0.75438667  0.42372516  0.06023548     0.39900
C1470       C  0.71744931  0.53102339  0.01683905     0.36500
C1471       C  0.67301263  0.45276345  0.96925605     0.36200
C1472       C  0.72860712  0.52215400  0.84691877     0.37000
N1473       N  0.76265969  0.40189131  0.06687106    -0.43800
N1474       N  0.71051847  0.55299248  0.00778981    -0.44300
N1475       N  0.73959553  0.53702883  0.82284778    -0.41600
N1476       N  0.66136268  0.43887202  0.99403602    -0.43100
H1477       H  0.66198169  0.45825956  0.88348189     0.13100
H1478       H  0.74100064  0.51480545  0.93152424     0.09600
H1479       H  0.73106723  0.43923566  0.98633590     0.10700
H1480       H  0.73942636  0.51567546  0.09342302     0.16500
C1481       C  0.73044242  0.50657542  0.51954872    -0.01700
C1482       C  0.74819857  0.48702854  0.50034505     0.06900
C1483       C  0.75782156  0.46543465  0.52684664    -0.07700
C1484       C  0.74878823  0.46203431  0.57059533     0.04300
C1485       C  0.72933489  0.48034572  0.58880081    -0.14900
C1486       C  0.72109602  0.50304598  0.56335515    -0.08300
C1487       C  0.75629771  0.48767182  0.45247105     0.05200
C1488       C  0.78419379  0.48786573  0.44108897    -0.09400
C1489       C  0.79280398  0.48564891  0.39670249     0.00200
C1490       C  0.77319265  0.48312429  0.36220043     0.00100
C1491       C  0.74525882  0.48332647  0.37396817    -0.12900
C1492       C  0.73676385  0.48529129  0.41822340     0.00600
C1493       C  0.82187165  0.48559199  0.38816663     0.39900
C1494       C  0.70783975  0.48332866  0.42757518     0.36500
C1495       C  0.72148253  0.53034539  0.49497447     0.36200
C1496       C  0.76009082  0.43963605  0.59617113     0.37000
N1497       N  0.84521592  0.48551446  0.38166800    -0.43800
N1498       N  0.68462988  0.48184800  0.43482570    -0.44300
N1499       N  0.76915481  0.42177618  0.61679246    -0.41600
N1500       N  0.71420568  0.54936396  0.47525208    -0.43100
H1501       H  0.70659590  0.51752403  0.57709626     0.13100
H1502       H  0.77195620  0.45067423  0.51286374     0.09600
H1503       H  0.79938584  0.48933254  0.46722454     0.10700
H1504       H  0.72971085  0.48123491  0.34853251     0.16500
loop_ 
_geom_bond_atom_site_label_1 
_geom_bond_atom_site_label_2 
_geom_bond_distance 
_geom_bond_site_symmetry_2 
_ccdc_geom_bond_type 
O1          Cr19   1.968       .  S
O1            C9   1.260       .  A
O2          Cr19   2.030       .  S
O2            C3   1.274       .  A
C3            O4   1.260       .  A
C3         C1437   1.490       .  S
O4          Cr20   1.964       .  S
O5          Cr20   1.997       .  S
O5            C6   1.259       .  A
C6            O7   1.258       .  A
C6         C1394   1.493       .  S
O7          Cr21   1.992       .  S
O8          Cr21   2.036       .  S
O8            C9   1.274       .  A
C9         C1461   1.494       .  S
O10         Cr19   2.017       .  S
O10          C18   1.265       .  A
O11         Cr19   2.000       .  S
O11          C12   1.262       .  A
C12          O13   1.260       .  A
C12        C1485   1.489       .  S
O13         Cr20   1.997       .  S
O14         Cr20   1.965       .  S
O14          C15   1.262       .  A
C15          O16   1.278       .  A
C15        C1413   1.504       .  S
O16         Cr21   2.047       .  S
O17         Cr21   1.973       .  S
O17          C18   1.257       .  A
C18        C1365   1.478       .  S
Cr19         O22   1.780       .  S
Cr20         O22   1.767       .  S
Cr21         O22   1.775       .  S
O23         Cr41   2.037       .  S
O23          C31   1.276       .  A
O24         Cr41   1.975       .  S
O24          C25   1.263       .  A
C25          O26   1.269       .  A
C25        C1490   1.502       .  S
O26         Cr42   2.019       .  S
O27         Cr42   1.984       .  S
O27          C28   1.256       .  A
C28          O29   1.262       .  A
C28        C1322   1.497       .  S
O29         Cr43   2.008       .  S
O30         Cr43   1.969       .  S
O30          C31   1.263       .  A
C31        C1298   1.496       .  S
O32         Cr41   2.010       .  S
O32          C40   1.265       .  A
O33         Cr41   2.031       .  S
O33          C34   1.269       .  A
C34          O35   1.256       .  A
C34        C1269   1.484       .  S
O35         Cr42   1.966       .  S
O36         Cr42   2.030       .  S
O36          C37   1.275       .  A
C37          O38   1.261       .  A
C37        C1346   1.488       .  S
O38         Cr43   1.961       .  S
O39         Cr43   2.000       .  S
O39          C40   1.260       .  A
C40        C1466   1.504       .  S
Cr41         O44   1.774       .  S
Cr42         O44   1.775       .  S
Cr43         O44   1.769       .  S
O45         Cr63   1.971       .  S
O45          C53   1.258       .  A
O46         Cr63   2.031       .  S
O46          C47   1.275       .  A
C47          O48   1.264       .  A
C47        C1317   1.497       .  S
O48         Cr64   1.967       .  S
O49         Cr64   2.009       .  S
O49          C50   1.263       .  A
C50          O51   1.258       .  A
C50        C1173   1.496       .  S
O51         Cr65   1.987       .  S
O52         Cr65   2.024       .  S
O52          C53   1.269       .  A
C53        C1221   1.501       .  S
O54         Cr63   2.024   1_455  S
O54          C62   1.268       .  A
O55         Cr63   1.997       .  S
O55          C56   1.259       .  A
C56          O57   1.260       .  A
C56        C1250   1.491       .  S
O57         Cr64   2.001       .  S
O58         Cr64   1.968       .  S
O58          C59   1.262       .  A
C59          O60   1.274       .  A
C59        C1197   1.484       .  S
O60         Cr65   2.027       .  S
O61         Cr65   1.963   1_455  S
O61          C62   1.256       .  A
C62        C1149   1.477       .  S
Cr63         O66   1.774       .  S
Cr64         O66   1.769       .  S
Cr65         O66   1.776       .  S
O67         Cr85   2.043       .  S
O67          C75   1.278       .  A
O68         Cr85   1.960       .  S
O68          C69   1.259       .  A
C69          O70   1.273       .  A
C69        C1245   1.501       .  S
O70         Cr86   2.033       .  S
O71         Cr86   1.988       .  S
O71          C72   1.258       .  A
C72          O73   1.259       .  A
C72        C1442   1.490       .  S
O73         Cr87   1.997       .  S
O74         Cr87   1.954       .  S
O74          C75   1.260       .  A
C75        C1130   1.493       .  S
O76         Cr85   2.002       .  S
O76          C84   1.262       .  A
O77         Cr85   2.030   1_455  S
O77          C78   1.270       .  A
C78          O79   1.257   1_455  A
C78        C1106   1.494       .  S
O79         Cr86   1.964       .  S
O80         Cr86   2.041       .  S
O80          C81   1.277       .  A
C81          O82   1.259       .  A
C81        C1341   1.493       .  S
O82         Cr87   1.949       .  S
O83         Cr87   1.997       .  S
O83          C84   1.259       .  A
C84        C1226   1.500       .  S
Cr85         O88   1.772       .  S
Cr86         O88   1.772       .  S
Cr87         O88   1.764       .  S
O89        Cr107   2.038   1_545  S
O89          C97   1.276       .  A
O90        Cr107   1.951   1_545  S
O90          C91   1.257   1_545  A
C91          O92   1.270       .  A
C91        C1077   1.479       .  S
O92        Cr108   2.021   1_565  S
O93        Cr108   1.994       .  S
O93          C94   1.261       .  A
C94          O95   1.263       .  A
C94        C1005   1.497       .  S
O95        Cr109   2.011       .  S
O96        Cr109   1.963       .  S
O96          C97   1.261       .  A
C97        C1178   1.493       .  S
O98        Cr107   1.987       .  S
O98         C106   1.258   1_565  A
O99        Cr107   2.029       .  S
O99         C100   1.267       .  A
C100        O101   1.257       .  A
C100        C986   1.486       .  S
O101       Cr108   1.974   1_565  S
O102       Cr108   2.018       .  S
O102        C103   1.272       .  A
C103        O104   1.259       .  A
C103       C1029   1.486       .  S
O104       Cr109   1.959       .  S
O105       Cr109   2.009       .  S
O105        C106   1.263       .  A
C106       C1058   1.479       .  S
Cr107       O110   1.772   1_565  S
Cr108       O110   1.770       .  S
Cr109       O110   1.765       .  S
O111       Cr129   1.964   1_545  S
O111        C119   1.258       .  A
O112       Cr129   2.031   1_545  S
O112        C113   1.273       .  A
C113        O114   1.261       .  A
C113        C957   1.490       .  S
O114       Cr130   1.958       .  S
O115       Cr130   1.994       .  S
O115        C116   1.261       .  A
C116        O117   1.257       .  A
C116       C1125   1.488       .  S
O117       Cr131   1.983       .  S
O118       Cr131   2.023       .  S
O118        C119   1.271       .  A
C119       C1053   1.494   1_545  S
O120       Cr129   2.030       .  S
O120        C128   1.269       .  A
O121       Cr129   1.993       .  S
O121        C122   1.261   1_565  A
C122        O123   1.261       .  A
C122       C1082   1.489       .  S
O123       Cr130   1.991       .  S
O124       Cr130   1.957       .  S
O124        C125   1.261       .  A
C125        O126   1.272       .  A
C125       C1202   1.485       .  S
O126       Cr131   2.029       .  S
O127       Cr131   1.962   1_565  S
O127        C128   1.256       .  A
C128        C938   1.493       .  S
Cr129       O132   1.772   1_565  S
Cr130       O132   1.761       .  S
Cr131       O132   1.770       .  S
O133       Cr151   2.035       .  S
O133        C141   1.276       .  A
O134       Cr151   1.964       .  S
O134        C135   1.260       .  A
C135        O136   1.267       .  A
C135        C914   1.491       .  S
O136       Cr152   2.014       .  S
O137       Cr152   1.981       .  S
O137        C138   1.256       .  A
C138        O139   1.260       .  A
C138        C962   1.482       .  S
O139       Cr153   2.001       .  S
O140       Cr153   1.967       .  S
O140        C141   1.263       .  A
C141       C1389   1.494       .  S
O142       Cr151   1.996       .  S
O142        C150   1.261       .  A
O143       Cr151   2.029       .  S
O143        C144   1.270       .  A
C144        O145   1.256       .  A
C144        C861   1.489       .  S
O145       Cr152   1.958       .  S
O146       Cr152   2.023       .  S
O146        C147   1.273       .  A
C147        O148   1.261       .  A
C147       C1034   1.485       .  S
O148       Cr153   1.958       .  S
O149       Cr153   2.000       .  S
O149        C150   1.261       .  A
C150        C885   1.494       .  S
Cr151       O154   1.771       .  S
Cr152       O154   1.773       .  S
Cr153       O154   1.768       .  S
O155       Cr173   1.954       .  S
O155        C163   1.254       .  A
O156       Cr173   2.045       .  S
O156        C157   1.278       .  A
C157        O158   1.261       .  A
C157       C1010   1.498       .  S
O158       Cr174   1.964       .  S
O159       Cr174   2.006       .  S
O159        C160   1.264       .  A
C160        O161   1.258       .  A
C160       C1293   1.490       .  S
O161       Cr175   1.984       .  S
O162       Cr175   2.039       .  S
O162        C163   1.274       .  A
C163        C890   1.502       .  S
O164       Cr173   2.039       .  S
O164        C172   1.271       .  A
O165       Cr173   1.982       .  S
O165        C166   1.257       .  A
C166        O167   1.263       .  A
C166        C909   1.482       .  S
O167       Cr174   2.011       .  S
O168       Cr174   1.967       .  S
O168        C169   1.262       .  A
C169        O170   1.277       .  A
C169       C1418   1.499       .  S
O170       Cr175   2.043       .  S
O171       Cr175   1.962       .  S
O171        C172   1.256       .  A
C172        C842   1.486       .  S
Cr173       O176   1.773       .  S
Cr174       O176   1.766       .  S
Cr175       O176   1.772       .  S
O177       Cr195   2.028       .  S
O177        C185   1.273       .  A
O178       Cr195   1.962       .  S
O178        C179   1.257       .  A
C179        O180   1.269       .  A
C179        C765   1.492       .  S
O180       Cr196   2.020       .  S
O181       Cr196   1.989       .  S
O181        C182   1.260       .  A
C182        O183   1.262       .  A
C182        C722   1.488       .  S
O183       Cr197   2.002       .  S
O184       Cr197   1.966       .  S
O184        C185   1.262       .  A
C185        C813   1.485       .  S
O186       Cr195   1.989       .  S
O186        C194   1.260       .  A
O187       Cr195   2.024   1_545  S
O187        C188   1.268       .  A
C188        O189   1.256   1_545  A
C188       C1154   1.487       .  S
O189       Cr196   1.959       .  S
O190       Cr196   2.020       .  S
O190        C191   1.272       .  A
C191        O192   1.262       .  A
C191        C746   1.491       .  S
O192       Cr197   1.969       .  S
O193       Cr197   2.002       .  S
O193        C194   1.262       .  A
C194        C794   1.493       .  S
Cr195       O198   1.773       .  S
Cr196       O198   1.769       .  S
Cr197       O198   1.764       .  S
O199       Cr217   1.952       .  S
O199        C207   1.255       .  A
O200       Cr217   2.032       .  S
O200        C201   1.275       .  A
C201        O202   1.260       .  A
C201        C650   1.486       .  S
O202       Cr218   1.959       .  S
O203       Cr218   2.000       .  S
O203        C204   1.262       .  A
C204        O205   1.260       .  A
C204        C674   1.494       .  S
O205       Cr219   1.983       .  S
O206       Cr219   2.033       .  S
O206        C207   1.273       .  A
C207        C789   1.495       .  S
O208       Cr217   2.028   1_545  S
O208        C216   1.268       .  A
O209       Cr217   1.987       .  S
O209        C210   1.258       .  A
C210        O211   1.263       .  A
C210        C770   1.492   1_556  S
O211       Cr218   2.002       .  S
O212       Cr218   1.960       .  S
O212        C213   1.261       .  A
C213        O214   1.273       .  A
C213        C698   1.486       .  S
O214       Cr219   2.031       .  S
O215       Cr219   1.954   1_545  S
O215        C216   1.254       .  A
C216        C866   1.479       .  S
Cr217       O220   1.771       .  S
Cr218       O220   1.759       .  S
Cr219       O220   1.768       .  S
O221       Cr239   2.036       .  S
O221        C229   1.275       .  A
O222       Cr239   1.961       .  S
O222        C223   1.259       .  A
C223        O224   1.270       .  A
C223        C621   1.485       .  S
O224       Cr240   2.019       .  S
O225       Cr240   1.992       .  S
O225        C226   1.259       .  A
C226        O227   1.262       .  A
C226        C549   1.492       .  S
O227       Cr241   2.002       .  S
O228       Cr241   1.959       .  S
O228        C229   1.263       .  A
C229        C669   1.495       .  S
O230       Cr239   1.994       .  S
O230        C238   1.260       .  A
O231       Cr239   2.022       .  S
O231        C232   1.267       .  A
C232        O233   1.257       .  A
C232       C1370   1.488       .  S
O233       Cr240   1.967       .  S
O234       Cr240   2.024       .  S
O234        C235   1.272       .  A
C235        O236   1.261       .  A
C235        C573   1.488       .  S
O236       Cr241   1.957       .  S
O237       Cr241   1.995       .  S
O237        C238   1.260       .  A
C238        C597   1.487       .  S
Cr239       O242   1.774       .  S
Cr240       O242   1.770       .  S
Cr241       O242   1.762       .  S
O243       Cr261   1.972       .  S
O243        C251   1.260       .  A
O244       Cr261   2.031       .  S
O244        C245   1.275       .  A
C245        O246   1.264       .  A
C245        C525   1.487       .  S
O246       Cr262   1.966       .  S
O247       Cr262   1.999       .  S
O247        C248   1.260       .  A
C248        O249   1.257       .  A
C248        C818   1.485       .  S
O249       Cr263   1.989       .  S
O250       Cr263   2.007       .  S
O250        C251   1.267       .  A
C251        C602   1.483       .  S
O252       Cr261   2.029       .  S
O252        C260   1.269       .  A
O253       Cr261   1.999       .  S
O253        C254   1.261       .  A
C254        O255   1.259       .  A
C254        C626   1.490       .  S
O255       Cr262   1.988       .  S
O256       Cr262   1.969       .  S
O256        C257   1.263       .  A
C257        O258   1.272       .  A
C257        C693   1.488       .  S
O258       Cr263   2.022       .  S
O259       Cr263   1.961       .  S
O259        C260   1.258       .  A
C260        C981   1.502       .  S
Cr261       O264   1.779       .  S
Cr262       O264   1.769       .  S
Cr263       O264   1.771       .  S
O265       Cr283   1.975       .  S
O265        C273   1.261       .  A
O266       Cr283   2.051   1_455  S
O266        C267   1.281       .  A
C267        O268   1.261       .  A
C267        C717   1.495       .  S
O268       Cr284   1.954       .  S
O269       Cr284   1.995       .  S
O269        C270   1.258       .  A
C270        O271   1.256       .  A
C270        C429   1.484       .  S
O271       Cr285   1.984       .  S
O272       Cr285   2.020   1_655  S
O272        C273   1.270       .  A
C273        C482   1.493       .  S
O274       Cr283   2.036       .  S
O274        C282   1.272       .  A
O275       Cr283   2.004       .  S
O275        C276   1.259   1_655  A
C276        O277   1.255       .  A
C276        C506   1.477       .  S
O277       Cr284   1.994       .  S
O278       Cr284   1.960       .  S
O278        C279   1.263       .  A
C279        O280   1.275       .  A
C279        C458   1.490       .  S
O280       Cr285   2.030       .  S
O281       Cr285   1.962   1_655  S
O281        C282   1.256       .  A
C282       C1274   1.496       .  S
Cr283       O286   1.773   1_655  S
Cr284       O286   1.771       .  S
Cr285       O286   1.770       .  S
O287       Cr305   1.993   1_455  S
O287        C295   1.265       .  A
O288       Cr305   2.027       .  S
O288        C289   1.275   1_655  A
C289        O290   1.265       .  A
C289        C501   1.494       .  S
O290       Cr306   1.978       .  S
O291       Cr306   1.987       .  S
O291        C292   1.257       .  A
C292        O293   1.259       .  A
C292        C645   1.487       .  S
O293       Cr307   1.994       .  S
O294       Cr307   1.996       .  S
O294        C295   1.263       .  A
C295        C405   1.502       .  S
O296       Cr305   2.022       .  S
O296        C304   1.268   1_655  A
O297       Cr305   2.012       .  S
O297        C298   1.263       .  A
C298        O299   1.257       .  A
C298        C933   1.488       .  S
O299       Cr306   1.989   1_655  S
O300       Cr306   1.989       .  S
O300        C301   1.267       .  A
C301        O302   1.269       .  A
C301        C741   1.471       .  S
O302       Cr307   1.998       .  S
O303       Cr307   1.970       .  S
O303        C304   1.258       .  A
C304        C477   1.496       .  S
Cr305       O308   1.778   1_655  S
Cr306       O308   1.779       .  S
Cr307       O308   1.771       .  S
O309       Cr327   2.045       .  S
O309        C317   1.280       .  A
O310       Cr327   1.963       .  S
O310        C311   1.258       .  A
C311        O312   1.270       .  A
C311        C381   1.488       .  S
O312       Cr328   2.023       .  S
O313       Cr328   1.981       .  S
O313        C314   1.255       .  A
C314        O315   1.262       .  A
C314        C530   1.494       .  S
O315       Cr329   2.010       .  S
O316       Cr329   1.945       .  S
O316        C317   1.259       .  A
C317        C434   1.488       .  S
O318       Cr327   1.994       .  S
O318        C326   1.260       .  A
O319       Cr327   2.042       .  S
O319        C320   1.272       .  A
C320        O321   1.256       .  A
C320        C837   1.505       .  S
O321       Cr328   1.954       .  S
O322       Cr328   2.031       .  S
O322        C323   1.274       .  A
C323        O324   1.262       .  A
C323        C578   1.488       .  S
O324       Cr329   1.955       .  S
O325       Cr329   2.004       .  S
O325        C326   1.261       .  A
C326        C357   1.496       .  S
Cr327       O330   1.774       .  S
Cr328       O330   1.767       .  S
Cr329       O330   1.767       .  S
O331       Cr349   1.971       .  S
O331        C339   1.260       .  A
O332       Cr349   2.030       .  S
O332        C333   1.273       .  A
C333        O334   1.262       .  A
C333        C554   1.494       .  S
O334       Cr350   1.969       .  S
O335       Cr350   2.014       .  S
O335        C336   1.266       .  A
C336        O337   1.259       .  A
C336        C410   1.499       .  S
O337       Cr351   1.982       .  S
O338       Cr351   2.017       .  S
O338        C339   1.268       .  A
C339        C362   1.498       .  S
O340       Cr349   2.032       .  S
O340        C348   1.269       .  A
O341       Cr349   1.990       .  S
O341        C342   1.261       .  A
C342        O343   1.266       .  A
C342        C386   1.495   1_556  S
O343       Cr350   2.007       .  S
O344       Cr350   1.966       .  S
O344        C345   1.260       .  A
C345        O346   1.269       .  A
C345        C453   1.484       .  S
O346       Cr351   2.017       .  S
O347       Cr351   1.964       .  S
O347        C348   1.255       .  A
C348       C1101   1.478       .  S
Cr349       O352   1.774       .  S
Cr350       O352   1.765       .  S
Cr351       O352   1.771       .  S
C353        C354   1.407       .  A
C353        C358   1.401       .  A
C353        C367   1.445       .  S
C354        C359   1.486       .  S
C354        C355   1.402       .  A
C355        C356   1.405       .  A
C355        H374   1.085       .  S
C356        C357   1.418       .  A
C356        C368   1.443       .  S
C357        C358   1.411       .  A
C358        H373   1.085       .  S
C359        C360   1.401       .  A
C359        C364   1.408       .  A
C360        C361   1.405       .  A
C360        H375   1.085       .  S
C361        C362   1.420       .  A
C361        C365   1.443       .  S
C362        C363   1.411       .  A
C363        C364   1.401       .  A
C363        H376   1.084       .  S
C364        C366   1.445       .  S
C365        N369   1.157       .  T
C366        N370   1.157       .  T
C367        N372   1.157       .  T
C368        N371   1.157       .  T
C377        C378   1.412       .  A
C377        C382   1.403       .  A
C377        C391   1.444       .  S
C378        C383   1.489       .  S
C378        C379   1.402       .  A
C379        C380   1.405       .  A
C379        H398   1.085       .  S
C380        C381   1.417       .  A
C380        C392   1.444       .  S
C381        C382   1.402       .  A
C382        H397   1.081       .  S
C383        C384   1.403       .  A
C383        C388   1.408       .  A
C384        C385   1.409       .  A
C384        H399   1.085       .  S
C385        C386   1.419       .  A
C385        C389   1.443   1_554  S
C386        C387   1.408       .  A
C387        C388   1.399       .  A
C387        H400   1.085       .  S
C388        C390   1.445       .  S
C389        N393   1.157       .  T
C390        N394   1.157       .  T
C391        N396   1.157       .  T
C392        N395   1.157       .  T
C401        C402   1.412       .  A
C401        C406   1.404       .  A
C401        C415   1.444       .  S
C402        C407   1.495       .  S
C402        C403   1.401       .  A
C403        C404   1.404       .  A
C403        H422   1.085       .  S
C404        C405   1.423       .  A
C404        C416   1.444       .  S
C405        C406   1.410       .  A
C406        H421   1.084       .  S
C407        C408   1.405       .  A
C407        C412   1.410       .  A
C408        C409   1.407       .  A
C408        H423   1.085       .  S
C409        C410   1.420       .  A
C409        C413   1.444       .  S
C410        C411   1.410       .  A
C411        C412   1.401       .  A
C411        H424   1.084       .  S
C412        C414   1.444       .  S
C413        N417   1.158       .  T
C414        N418   1.157       .  T
C415        N420   1.157       .  T
C416        N419   1.157       .  T
C425        C426   1.408       .  A
C425        C430   1.397       .  A
C425        C439   1.445       .  S
C426        C431   1.482       .  S
C426        C427   1.403       .  A
C427        C428   1.402       .  A
C427        H446   1.085       .  S
C428        C429   1.414       .  A
C428        C440   1.442       .  S
C429        C430   1.408       .  A
C430        H445   1.085       .  S
C431        C432   1.398       .  A
C431        C436   1.410       .  A
C432        C433   1.396       .  A
C432        H447   1.086       .  S
C433        C434   1.422       .  A
C433        C437   1.446       .  S
C434        C435   1.407       .  A
C435        C436   1.403       .  A
C435        H448   1.084       .  S
C436        C438   1.443       .  S
C437        N441   1.158       .  T
C438        N442   1.157       .  T
C439        N444   1.157       .  T
C440        N443   1.157       .  T
C449        C450   1.410   1_556  A
C449        C454   1.401       .  A
C449        C463   1.444       .  S
C450        C455   1.483       .  S
C450        C451   1.401       .  A
C451        C452   1.397       .  A
C451        H470   1.085       .  S
C452        C453   1.415   1_554  A
C452        C464   1.444       .  S
C453        C454   1.408       .  A
C454        H469   1.085       .  S
C455        C456   1.403       .  A
C455        C460   1.411       .  A
C456        C457   1.402       .  A
C456        H471   1.085       .  S
C457        C458   1.417       .  A
C457        C461   1.443       .  S
C458        C459   1.408       .  A
C459        C460   1.395       .  A
C459        H472   1.085       .  S
C460        C462   1.446   1_554  S
C461        N465   1.157       .  T
C462        N466   1.158       .  T
C463        N468   1.157       .  T
C464        N467   1.157       .  T
C473        C474   1.415       .  A
C473        C478   1.410       .  A
C473        C487   1.443       .  S
C474        C479   1.499       .  S
C474        C475   1.402   1_655  A
C475        C476   1.400       .  A
C475        H494   1.085       .  S
C476        C477   1.419       .  A
C476        C488   1.445       .  S
C477        C478   1.408   1_455  A
C478        H493   1.084       .  S
C479        C480   1.404       .  A
C479        C484   1.416   1_655  A
C480        C481   1.405       .  A
C480        H495   1.085       .  S
C481        C482   1.416       .  A
C481        C485   1.444       .  S
C482        C483   1.404   1_655  A
C483        C484   1.406       .  A
C483        H496   1.084       .  S
C484        C486   1.444       .  S
C485        N489   1.157       .  T
C486        N490   1.157       .  T
C487        N492   1.157       .  T
C488        N491   1.157       .  T
C497        C498   1.412       .  A
C497        C502   1.403       .  A
C497        C511   1.444       .  S
C498        C503   1.497       .  S
C498        C499   1.405   1_655  A
C499        C500   1.404       .  A
C499        H518   1.085       .  S
C500        C501   1.419       .  A
C500        C512   1.445       .  S
C501        C502   1.407   1_455  A
C502        H517   1.085       .  S
C503        C504   1.407   1_556  A
C503        C508   1.415   1_656  A
C504        C505   1.403       .  A
C504        H519   1.085   1_554  S
C505        C506   1.409   1_655  A
C505        C509   1.444       .  S
C506        C507   1.403       .  A
C507        C508   1.404       .  A
C507        H520   1.085       .  S
C508        C510   1.444       .  S
C509        N513   1.157       .  T
C510        N514   1.157       .  T
C511        N516   1.157       .  T
C512        N515   1.157       .  T
C521        C522   1.406       .  A
C521        C526   1.398       .  A
C521        C535   1.444       .  S
C522        C527   1.482       .  S
C522        C523   1.403       .  A
C523        C524   1.404       .  A
C523        H542   1.085       .  S
C524        C525   1.416       .  A
C524        C536   1.444       .  S
C525        C526   1.407       .  A
C526        H541   1.085       .  S
C527        C528   1.400       .  A
C527        C532   1.406       .  A
C528        C529   1.403       .  A
C528        H543   1.085       .  S
C529        C530   1.420       .  A
C529        C533   1.441       .  S
C530        C531   1.410       .  A
C531        C532   1.399       .  A
C531        H544   1.085       .  S
C532        C534   1.444       .  S
C533        N537   1.156       .  T
C534        N538   1.157       .  T
C535        N540   1.157       .  T
C536        N539   1.157       .  T
C545        C546   1.409       .  A
C545        C550   1.399       .  A
C545        C559   1.445       .  S
C546        C551   1.488       .  S
C546        C547   1.404       .  A
C547        C548   1.406       .  A
C547        H566   1.085       .  S
C548        C549   1.416       .  A
C548        C560   1.442       .  S
C549        C550   1.409       .  A
C550        H565   1.085       .  S
C551        C552   1.403       .  A
C551        C556   1.408       .  A
C552        C553   1.404       .  A
C552        H567   1.085       .  S
C553        C554   1.417       .  A
C553        C557   1.443       .  S
C554        C555   1.410       .  A
C555        C556   1.402       .  A
C555        H568   1.085       .  S
C556        C558   1.444       .  S
C557        N561   1.157       .  T
C558        N562   1.157       .  T
C559        N564   1.157       .  T
C560        N563   1.157       .  T
C569        C570   1.409       .  A
C569        C574   1.394       .  A
C569        C583   1.445       .  S
C570        C575   1.483       .  S
C570        C571   1.403       .  A
C571        C572   1.402       .  A
C571        H590   1.085       .  S
C572        C573   1.417       .  A
C572        C584   1.443       .  S
C573        C574   1.408       .  A
C574        H589   1.084       .  S
C575        C576   1.402       .  A
C575        C580   1.409       .  A
C576        C577   1.402       .  A
C576        H591   1.085       .  S
C577        C578   1.418       .  A
C577        C581   1.444       .  S
C578        C579   1.409       .  A
C579        C580   1.395       .  A
C579        H592   1.085       .  S
C580        C582   1.446       .  S
C581        N585   1.157       .  T
C582        N586   1.157       .  T
C583        N588   1.157       .  T
C584        N587   1.157       .  T
C593        C594   1.410       .  A
C593        C598   1.406       .  A
C593        C607   1.443       .  S
C594        C599   1.486       .  S
C594        C595   1.400       .  A
C595        C596   1.397       .  A
C595        H614   1.085       .  S
C596        C597   1.418       .  A
C596        C608   1.445       .  S
C597        C598   1.407       .  A
C598        H613   1.084       .  S
C599        C600   1.402       .  A
C599        C604   1.411       .  A
C600        C601   1.403       .  A
C600        H615   1.084       .  S
C601        C602   1.414       .  A
C601        C605   1.444       .  S
C602        C603   1.404       .  A
C603        C604   1.401       .  A
C603        H616   1.084       .  S
C604        C606   1.444       .  S
C605        N609   1.157       .  T
C606        N610   1.157       .  T
C607        N612   1.157       .  T
C608        N611   1.157       .  T
C617        C618   1.411       .  A
C617        C622   1.402       .  A
C617        C631   1.444       .  S
C618        C623   1.484       .  S
C618        C619   1.400       .  A
C619        C620   1.401       .  A
C619        H638   1.085       .  S
C620        C621   1.417       .  A
C620        C632   1.445       .  S
C621        C622   1.404       .  A
C622        H637   1.084       .  S
C623        C624   1.404   1_556  A
C623        C628   1.407   1_556  A
C624        C625   1.406       .  A
C624        H639   1.085       .  S
C625        C626   1.415       .  A
C625        C629   1.442       .  S
C626        C627   1.409       .  A
C627        C628   1.396       .  A
C627        H640   1.085       .  S
C628        C630   1.445   1_554  S
C629        N633   1.157       .  T
C630        N634   1.157       .  T
C631        N636   1.157       .  T
C632        N635   1.157       .  T
C641        C642   1.408       .  A
C641        C646   1.398       .  A
C641        C655   1.445       .  S
C642        C647   1.486       .  S
C642        C643   1.405       .  A
C643        C644   1.405       .  A
C643        H662   1.085       .  S
C644        C645   1.414       .  A
C644        C656   1.443       .  S
C645        C646   1.408       .  A
C646        H661   1.085       .  S
C647        C648   1.400       .  A
C647        C652   1.412       .  A
C648        C649   1.400       .  A
C648        H663   1.085       .  S
C649        C650   1.418       .  A
C649        C653   1.445       .  S
C650        C651   1.405       .  A
C651        C652   1.402       .  A
C651        H664   1.084       .  S
C652        C654   1.444       .  S
C653        N657   1.157       .  T
C654        N658   1.157       .  T
C655        N660   1.157       .  T
C656        N659   1.157       .  T
C665        C666   1.408       .  A
C665        C670   1.395       .  A
C665        C679   1.445       .  S
C666        C671   1.487       .  S
C666        C667   1.404       .  A
C667        C668   1.407       .  A
C667        H686   1.085       .  S
C668        C669   1.420       .  A
C668        C680   1.443       .  S
C669        C670   1.409       .  A
C670        H685   1.084       .  S
C671        C672   1.399       .  A
C671        C676   1.409       .  A
C672        C673   1.397       .  A
C672        H687   1.085       .  S
C673        C674   1.422       .  A
C673        C677   1.445       .  S
C674        C675   1.410       .  A
C675        C676   1.405       .  A
C675        H688   1.084       .  S
C676        C678   1.443       .  S
C677        N681   1.158       .  T
C678        N682   1.157       .  T
C679        N684   1.157       .  T
C680        N683   1.157       .  T
C689        C690   1.409       .  A
C689        C694   1.401       .  A
C689        C703   1.444       .  S
C690        C695   1.482       .  S
C690        C691   1.400       .  A
C691        C692   1.400       .  A
C691        H710   1.085       .  S
C692        C693   1.418       .  A
C692        C704   1.444       .  S
C693        C694   1.408       .  A
C694        H709   1.084       .  S
C695        C696   1.404       .  A
C695        C700   1.408       .  A
C696        C697   1.407   1_554  A
C696        H711   1.084   1_554  S
C697        C698   1.416       .  A
C697        C701   1.444       .  S
C698        C699   1.406   1_556  A
C699        C700   1.392       .  A
C699        H712   1.085       .  S
C700        C702   1.446       .  S
C701        N705   1.157       .  T
C702        N706   1.157       .  T
C703        N708   1.157       .  T
C704        N707   1.157       .  T
C713        C714   1.410       .  A
C713        C718   1.406       .  A
C713        C727   1.443       .  S
C714        C719   1.485       .  S
C714        C715   1.398       .  A
C715        C716   1.400       .  A
C715        H734   1.085       .  S
C716        C717   1.423       .  A
C716        C728   1.446       .  S
C717        C718   1.408       .  A
C718        H733   1.084       .  S
C719        C720   1.398       .  A
C719        C724   1.411       .  A
C720        C721   1.398       .  A
C720        H735   1.085       .  S
C721        C722   1.419       .  A
C721        C725   1.445       .  S
C722        C723   1.407       .  A
C723        C724   1.406       .  A
C723        H736   1.085       .  S
C724        C726   1.443       .  S
C725        N729   1.157       .  T
C726        N730   1.157       .  T
C727        N732   1.157       .  T
C728        N731   1.158       .  T
C737        C738   1.415       .  A
C737        C742   1.403       .  A
C737        C751   1.444       .  S
C738        C743   1.493       .  S
C738        C739   1.405       .  A
C739        C740   1.397       .  A
C739        H758   1.084       .  S
C740        C741   1.408       .  A
C740        C752   1.444       .  S
C741        C742   1.402       .  A
C742        H757   1.085       .  S
C743        C744   1.405       .  A
C743        C748   1.412       .  A
C744        C745   1.399       .  A
C744        H759   1.085       .  S
C745        C746   1.417       .  A
C745        C749   1.445       .  S
C746        C747   1.408       .  A
C747        C748   1.402       .  A
C747        H760   1.084       .  S
C748        C750   1.444       .  S
C749        N753   1.158       .  T
C750        N754   1.157       .  T
C751        N756   1.157       .  T
C752        N755   1.157       .  T
C761        C762   1.411       .  A
C761        C766   1.403       .  A
C761        C775   1.444       .  S
C762        C767   1.486       .  S
C762        C763   1.398       .  A
C763        C764   1.399       .  A
C763        H782   1.085       .  S
C764        C765   1.421       .  A
C764        C776   1.445       .  S
C765        C766   1.407       .  A
C766        H781   1.084       .  S
C767        C768   1.404   1_565  A
C767        C772   1.408       .  A
C768        C769   1.406       .  A
C768        H783   1.085       .  S
C769        C770   1.419   1_545  A
C769        C773   1.444       .  S
C770        C771   1.408       .  A
C771        C772   1.396       .  A
C771        H784   1.085       .  S
C772        C774   1.445       .  S
C773        N777   1.158   1_554  T
C774        N778   1.157       .  T
C775        N780   1.157       .  T
C776        N779   1.157   1_565  T
C785        C786   1.413       .  A
C785        C790   1.405       .  A
C785        C799   1.443       .  S
C786        C791   1.491       .  S
C786        C787   1.399       .  A
C787        C788   1.399       .  A
C787        H806   1.085       .  S
C788        C789   1.424       .  A
C788        C800   1.446   1_565  S
C789        C790   1.406       .  A
C790        H805   1.084       .  S
C791        C792   1.400       .  A
C791        C796   1.413   1_565  A
C792        C793   1.398       .  A
C792        H807   1.085       .  S
C793        C794   1.420       .  A
C793        C797   1.444       .  S
C794        C795   1.408   1_565  A
C795        C796   1.406       .  A
C795        H808   1.085       .  S
C796        C798   1.444       .  S
C797        N801   1.157       .  T
C798        N802   1.157       .  T
C799        N804   1.157       .  T
C800        N803   1.158       .  T
C809        C810   1.411       .  A
C809        C814   1.403       .  A
C809        C823   1.443       .  S
C810        C815   1.488       .  S
C810        C811   1.402       .  A
C811        C812   1.399       .  A
C811        H830   1.085       .  S
C812        C813   1.416       .  A
C812        C824   1.445       .  S
C813        C814   1.406       .  A
C814        H829   1.085       .  S
C815        C816   1.406       .  A
C815        C820   1.409       .  A
C816        C817   1.406       .  A
C816        H831   1.085       .  S
C817        C818   1.413       .  A
C817        C821   1.443       .  S
C818        C819   1.407       .  A
C819        C820   1.397       .  A
C819        H832   1.085       .  S
C820        C822   1.445       .  S
C821        N825   1.157       .  T
C822        N826   1.157       .  T
C823        N828   1.157       .  T
C824        N827   1.157       .  T
C833        C834   1.408       .  A
C833        C838   1.396       .  A
C833        C847   1.446       .  S
C834        C839   1.497       .  S
C834        C835   1.408       .  A
C835        C836   1.415       .  A
C835        H854   1.084       .  S
C836        C837   1.418       .  A
C836        C848   1.442       .  S
C837        C838   1.412       .  A
C838        H853   1.085       .  S
C839        C840   1.404       .  A
C839        C844   1.413       .  A
C840        C841   1.403       .  A
C840        H855   1.085       .  S
C841        C842   1.413       .  A
C841        C845   1.445       .  S
C842        C843   1.405       .  A
C843        C844   1.410       .  A
C843        H856   1.085       .  S
C844        C846   1.443       .  S
C845        N849   1.157       .  T
C846        N850   1.157       .  T
C847        N852   1.157       .  T
C848        N851   1.157       .  T
C857        C858   1.408       .  A
C857        C862   1.396       .  A
C857        C871   1.446       .  S
C858        C863   1.486       .  S
C858        C859   1.405       .  A
C859        C860   1.410       .  A
C859        H878   1.084       .  S
C860        C861   1.414       .  A
C860        C872   1.442       .  S
C861        C862   1.407       .  A
C862        H877   1.085       .  S
C863        C864   1.401       .  A
C863        C868   1.411       .  A
C864        C865   1.400       .  A
C864        H879   1.085       .  S
C865        C866   1.415       .  A
C865        C869   1.446       .  S
C866        C867   1.403       .  A
C867        C868   1.405       .  A
C867        H880   1.085       .  S
C868        C870   1.442       .  S
C869        N873   1.158       .  T
C870        N874   1.157       .  T
C871        N876   1.157       .  T
C872        N875   1.157       .  T
C881        C882   1.411       .  A
C881        C886   1.406       .  A
C881        C895   1.442       .  S
C882        C887   1.488       .  S
C882        C883   1.399       .  A
C883        C884   1.400       .  A
C883        H902   1.085       .  S
C884        C885   1.421   1_554  A
C884        C896   1.445   1_554  S
C885        C886   1.408   1_556  A
C886        H901   1.084       .  S
C887        C888   1.397       .  A
C887        C892   1.410       .  A
C888        C889   1.400       .  A
C888        H903   1.086       .  S
C889        C890   1.427       .  A
C889        C893   1.446       .  S
C890        C891   1.410       .  A
C891        C892   1.409       .  A
C891        H904   1.084       .  S
C892        C894   1.442       .  S
C893        N897   1.158       .  T
C894        N898   1.157       .  T
C895        N900   1.157       .  T
C896        N899   1.158       .  T
C905        C906   1.411       .  A
C905        C910   1.403       .  A
C905        C919   1.444       .  S
C906        C911   1.486       .  S
C906        C907   1.401       .  A
C907        C908   1.401       .  A
C907        H926   1.085       .  S
C908        C909   1.415       .  A
C908        C920   1.445       .  S
C909        C910   1.405       .  A
C910        H925   1.084       .  S
C911        C912   1.404       .  A
C911        C916   1.408       .  A
C912        C913   1.407       .  A
C912        H927   1.085       .  S
C913        C914   1.418       .  A
C913        C917   1.444       .  S
C914        C915   1.408       .  A
C915        C916   1.395       .  A
C915        H928   1.085       .  S
C916        C918   1.445       .  S
C917        N921   1.158       .  T
C918        N922   1.157       .  T
C919        N924   1.157       .  T
C920        N923   1.157       .  T
C929        C930   1.416       .  A
C929        C934   1.408       .  A
C929        C943   1.443       .  S
C930        C935   1.498       .  S
C930        C931   1.403       .  A
C931        C932   1.401       .  A
C931        H950   1.085       .  S
C932        C933   1.416       .  A
C932        C944   1.446       .  S
C933        C934   1.404       .  A
C934        H949   1.085       .  S
C935        C936   1.408       .  A
C935        C940   1.413       .  A
C936        C937   1.408       .  A
C936        H951   1.085       .  S
C937        C938   1.415       .  A
C937        C941   1.443       .  S
C938        C939   1.407       .  A
C939        C940   1.400       .  A
C939        H952   1.086       .  S
C940        C942   1.445       .  S
C941        N945   1.157       .  T
C942        N946   1.157       .  T
C943        N948   1.157       .  T
C944        N947   1.157       .  T
C953        C954   1.406       .  A
C953        C958   1.396       .  A
C953        C967   1.445       .  S
C954        C959   1.479       .  S
C954        C955   1.401       .  A
C955        C956   1.403       .  A
C955        H974   1.085       .  S
C956        C957   1.419       .  A
C956        C968   1.444       .  S
C957        C958   1.409       .  A
C958        H973   1.084       .  S
C959        C960   1.402       .  A
C959        C964   1.407       .  A
C960        C961   1.403       .  A
C960        H975   1.085       .  S
C961        C962   1.415       .  A
C961        C965   1.444       .  S
C962        C963   1.407       .  A
C963        C964   1.396       .  A
C963        H976   1.085       .  S
C964        C966   1.445       .  S
C965        N969   1.157       .  T
C966        N970   1.157       .  T
C967        N972   1.157       .  T
C968        N971   1.157       .  T
C977        C978   1.408       .  A
C977        C982   1.394       .  A
C977        C991   1.446       .  S
C978        C983   1.494       .  S
C978        C979   1.407       .  A
C979        C980   1.414       .  A
C979        H998   1.084       .  S
C980        C981   1.420       .  A
C980        C992   1.443       .  S
C981        C982   1.409       .  A
C982        H997   1.084       .  S
C983        C984   1.405       .  A
C983        C988   1.412       .  A
C984        C985   1.409       .  A
C984        H999   1.085       .  S
C985        C986   1.414       .  A
C985        C989   1.443       .  S
C986        C987   1.404       .  A
C987        C988   1.402       .  A
C987       H1000   1.085       .  S
C988        C990   1.444       .  S
C989        N993   1.157       .  T
C990        N994   1.157       .  T
C991        N996   1.157       .  T
C992        N995   1.157       .  T
C1001      C1002   1.413       .  A
C1001      C1006   1.408       .  A
C1001      C1015   1.443       .  S
C1002      C1007   1.496       .  S
C1002      C1003   1.401       .  A
C1003      C1004   1.403       .  A
C1003      H1022   1.085       .  S
C1004      C1005   1.420       .  A
C1004      C1016   1.445       .  S
C1005      C1006   1.408       .  A
C1006      H1021   1.085       .  S
C1007      C1008   1.402       .  A
C1007      C1012   1.412       .  A
C1008      C1009   1.404       .  A
C1008      H1023   1.085       .  S
C1009      C1010   1.421       .  A
C1009      C1013   1.446       .  S
C1010      C1011   1.407       .  A
C1011      C1012   1.406       .  A
C1011      H1024   1.084       .  S
C1012      C1014   1.443       .  S
C1013      N1017   1.158       .  T
C1014      N1018   1.157       .  T
C1015      N1020   1.157       .  T
C1016      N1019   1.158       .  T
C1025      C1026   1.410       .  A
C1025      C1030   1.399       .  A
C1025      C1039   1.444       .  S
C1026      C1031   1.484       .  S
C1026      C1027   1.401       .  A
C1027      C1028   1.395       .  A
C1027      H1046   1.085       .  S
C1028      C1029   1.419       .  A
C1028      C1040   1.446       .  S
C1029      C1030   1.408       .  A
C1030      H1045   1.085       .  S
C1031      C1032   1.402       .  A
C1031      C1036   1.411   1_554  A
C1032      C1033   1.395       .  A
C1032      H1047   1.085       .  S
C1033      C1034   1.418   1_554  A
C1033      C1037   1.446       .  S
C1034      C1035   1.408       .  A
C1035      C1036   1.400       .  A
C1035      H1048   1.085       .  S
C1036      C1038   1.444       .  S
C1037      N1041   1.158       .  T
C1038      N1042   1.157       .  T
C1039      N1044   1.157       .  T
C1040      N1043   1.158       .  T
C1049      C1050   1.412       .  A
C1049      C1054   1.406       .  A
C1049      C1063   1.443       .  S
C1050      C1055   1.491       .  S
C1050      C1051   1.399   1_565  A
C1051      C1052   1.397       .  A
C1051      H1070   1.085       .  S
C1052      C1053   1.421   1_545  A
C1052      C1064   1.444       .  S
C1053      C1054   1.408       .  A
C1054      H1069   1.084       .  S
C1055      C1056   1.403   1_566  A
C1055      C1060   1.415   1_556  A
C1056      C1057   1.401       .  A
C1056      H1071   1.085       .  S
C1057      C1058   1.412       .  A
C1057      C1061   1.444       .  S
C1058      C1059   1.402   1_545  A
C1059      C1060   1.403       .  A
C1059      H1072   1.085       .  S
C1060      C1062   1.444   1_554  S
C1061      N1065   1.157       .  T
C1062      N1066   1.157       .  T
C1063      N1068   1.157       .  T
C1064      N1067   1.157       .  T
C1073      C1074   1.411   1_545  A
C1073      C1078   1.402       .  A
C1073      C1087   1.443       .  S
C1074      C1079   1.479       .  S
C1074      C1075   1.398       .  A
C1075      C1076   1.397       .  A
C1075      H1094   1.085       .  S
C1076      C1077   1.417       .  A
C1076      C1088   1.445       .  S
C1077      C1078   1.404   1_565  A
C1078      H1093   1.085       .  S
C1079      C1080   1.402       .  A
C1079      C1084   1.407   1_565  A
C1080      C1081   1.403       .  A
C1080      H1095   1.085       .  S
C1081      C1082   1.416   1_565  A
C1081      C1085   1.443       .  S
C1082      C1083   1.410       .  A
C1083      C1084   1.395       .  A
C1083      H1096   1.085       .  S
C1084      C1086   1.446       .  S
C1085      N1089   1.157       .  T
C1086      N1090   1.157       .  T
C1087      N1092   1.157       .  T
C1088      N1091   1.157       .  T
C1097      C1098   1.414       .  A
C1097      C1102   1.402       .  A
C1097      C1111   1.444       .  S
C1098      C1103   1.499       .  S
C1098      C1099   1.409       .  A
C1099      C1100   1.407       .  A
C1099      H1118   1.084       .  S
C1100      C1101   1.410       .  A
C1100      C1112   1.444       .  S
C1101      C1102   1.402       .  A
C1102      H1117   1.085       .  S
C1103      C1104   1.408       .  A
C1103      C1108   1.412       .  A
C1104      C1105   1.410       .  A
C1104      H1119   1.084       .  S
C1105      C1106   1.415       .  A
C1105      C1109   1.443       .  S
C1106      C1107   1.407       .  A
C1107      C1108   1.401       .  A
C1107      H1120   1.085       .  S
C1108      C1110   1.445       .  S
C1109      N1113   1.157       .  T
C1110      N1114   1.157       .  T
C1111      N1116   1.157       .  T
C1112      N1115   1.157       .  T
C1121      C1122   1.408       .  A
C1121      C1126   1.394       .  A
C1121      C1135   1.445       .  S
C1122      C1127   1.485       .  S
C1122      C1123   1.405       .  A
C1123      C1124   1.405       .  A
C1123      H1142   1.085       .  S
C1124      C1125   1.416       .  A
C1124      C1136   1.444       .  S
C1125      C1126   1.408       .  A
C1126      H1141   1.085       .  S
C1127      C1128   1.398       .  A
C1127      C1132   1.410       .  A
C1128      C1129   1.397       .  A
C1128      H1143   1.085       .  S
C1129      C1130   1.422       .  A
C1129      C1133   1.444       .  S
C1130      C1131   1.409       .  A
C1131      C1132   1.405       .  A
C1131      H1144   1.084       .  S
C1132      C1134   1.443       .  S
C1133      N1137   1.157       .  T
C1134      N1138   1.157       .  T
C1135      N1140   1.157       .  T
C1136      N1139   1.158       .  T
C1145      C1146   1.417       .  A
C1145      C1150   1.403       .  A
C1145      C1159   1.444       .  S
C1146      C1151   1.500       .  S
C1146      C1147   1.407       .  A
C1147      C1148   1.404       .  A
C1147      H1166   1.085       .  S
C1148      C1149   1.409       .  A
C1148      C1160   1.443       .  S
C1149      C1150   1.401       .  A
C1150      H1165   1.085       .  S
C1151      C1152   1.409       .  A
C1151      C1156   1.415       .  A
C1152      C1153   1.407       .  A
C1152      H1167   1.084       .  S
C1153      C1154   1.413       .  A
C1153      C1157   1.444       .  S
C1154      C1155   1.405       .  A
C1155      C1156   1.398       .  A
C1155      H1168   1.085       .  S
C1156      C1158   1.445       .  S
C1157      N1161   1.157       .  T
C1158      N1162   1.157       .  T
C1159      N1164   1.157       .  T
C1160      N1163   1.157       .  T
C1169      C1170   1.410       .  A
C1169      C1174   1.401       .  A
C1169      C1183   1.445       .  S
C1170      C1175   1.493       .  S
C1170      C1171   1.405       .  A
C1171      C1172   1.406       .  A
C1171      H1190   1.085       .  S
C1172      C1173   1.418       .  A
C1172      C1184   1.444       .  S
C1173      C1174   1.409       .  A
C1174      H1189   1.085       .  S
C1175      C1176   1.402       .  A
C1175      C1180   1.412       .  A
C1176      C1177   1.401       .  A
C1176      H1191   1.085       .  S
C1177      C1178   1.419       .  A
C1177      C1181   1.445       .  S
C1178      C1179   1.407       .  A
C1179      C1180   1.405       .  A
C1179      H1192   1.084       .  S
C1180      C1182   1.443       .  S
C1181      N1185   1.158       .  T
C1182      N1186   1.157       .  T
C1183      N1188   1.157       .  T
C1184      N1187   1.157       .  T
C1193      C1194   1.411       .  A
C1193      C1198   1.400       .  A
C1193      C1207   1.445       .  S
C1194      C1199   1.483       .  S
C1194      C1195   1.400       .  A
C1195      C1196   1.400       .  A
C1195      H1214   1.085       .  S
C1196      C1197   1.416       .  A
C1196      C1208   1.444       .  S
C1197      C1198   1.406       .  A
C1198      H1213   1.085       .  S
C1199      C1200   1.404       .  A
C1199      C1204   1.410       .  A
C1200      C1201   1.407       .  A
C1200      H1215   1.085       .  S
C1201      C1202   1.416       .  A
C1201      C1205   1.443       .  S
C1202      C1203   1.406       .  A
C1203      C1204   1.391       .  A
C1203      H1216   1.085       .  S
C1204      C1206   1.447       .  S
C1205      N1209   1.157       .  T
C1206      N1210   1.157       .  T
C1207      N1212   1.157       .  T
C1208      N1211   1.157       .  T
C1217      C1218   1.414       .  A
C1217      C1222   1.407       .  A
C1217      C1231   1.444       .  S
C1218      C1223   1.499       .  S
C1218      C1219   1.402       .  A
C1219      C1220   1.404       .  A
C1219      H1238   1.084       .  S
C1220      C1221   1.421       .  A
C1220      C1232   1.444   1_655  S
C1221      C1222   1.408       .  A
C1222      H1237   1.084       .  S
C1223      C1224   1.402       .  A
C1223      C1228   1.414   1_655  A
C1224      C1225   1.401       .  A
C1224      H1239   1.085       .  S
C1225      C1226   1.422   1_554  A
C1225      C1229   1.445       .  S
C1226      C1227   1.408   1_556  A
C1227      C1228   1.408   1_655  A
C1227      H1240   1.084   1_654  S
C1228      C1230   1.443       .  S
C1229      N1233   1.158   1_554  T
C1230      N1234   1.157       .  T
C1231      N1236   1.157       .  T
C1232      N1235   1.157       .  T
C1241      C1242   1.408       .  A
C1241      C1246   1.398       .  A
C1241      C1255   1.445       .  S
C1242      C1247   1.492       .  S
C1242      C1243   1.406       .  A
C1243      C1244   1.410       .  A
C1243      H1262   1.085       .  S
C1244      C1245   1.418       .  A
C1244      C1256   1.443       .  S
C1245      C1246   1.411       .  A
C1246      H1261   1.085       .  S
C1247      C1248   1.400       .  A
C1247      C1252   1.414   1_655  A
C1248      C1249   1.400       .  A
C1248      H1263   1.085       .  S
C1249      C1250   1.418       .  A
C1249      C1253   1.445       .  S
C1250      C1251   1.406   1_655  A
C1251      C1252   1.407       .  A
C1251      H1264   1.083       .  S
C1252      C1254   1.443       .  S
C1253      N1257   1.157       .  T
C1254      N1258   1.157       .  T
C1255      N1260   1.157       .  T
C1256      N1259   1.157       .  T
C1265      C1266   1.414       .  A
C1265      C1270   1.405       .  A
C1265      C1279   1.444       .  S
C1266      C1271   1.500       .  S
C1266      C1267   1.409       .  A
C1267      C1268   1.409       .  A
C1267      H1286   1.085       .  S
C1268      C1269   1.409       .  A
C1268      C1280   1.443       .  S
C1269      C1270   1.404       .  A
C1270      H1285   1.085       .  S
C1271      C1272   1.401       .  A
C1271      C1276   1.415       .  A
C1272      C1273   1.402       .  A
C1272      H1287   1.085       .  S
C1273      C1274   1.418       .  A
C1273      C1277   1.444       .  S
C1274      C1275   1.407       .  A
C1275      C1276   1.411       .  A
C1275      H1288   1.084       .  S
C1276      C1278   1.443       .  S
C1277      N1281   1.157       .  T
C1278      N1282   1.157       .  T
C1279      N1284   1.157       .  T
C1280      N1283   1.157       .  T
C1289      C1290   1.408       .  A
C1289      C1294   1.398       .  A
C1289      C1303   1.444       .  S
C1290      C1295   1.489       .  S
C1290      C1291   1.405       .  A
C1291      C1292   1.407       .  A
C1291      H1310   1.085       .  S
C1292      C1293   1.417       .  A
C1292      C1304   1.444       .  S
C1293      C1294   1.408       .  A
C1294      H1309   1.085       .  S
C1295      C1296   1.400       .  A
C1295      C1300   1.410       .  A
C1296      C1297   1.403       .  A
C1296      H1311   1.085       .  S
C1297      C1298   1.422       .  A
C1297      C1301   1.445       .  S
C1298      C1299   1.408       .  A
C1299      C1300   1.403       .  A
C1299      H1312   1.084       .  S
C1300      C1302   1.444       .  S
C1301      N1305   1.158       .  T
C1302      N1306   1.157       .  T
C1303      N1308   1.157       .  T
C1304      N1307   1.158       .  T
C1313      C1314   1.407       .  A
C1313      C1318   1.401       .  A
C1313      C1327   1.444       .  S
C1314      C1319   1.486       .  S
C1314      C1315   1.401       .  A
C1315      C1316   1.404       .  A
C1315      H1334   1.085       .  S
C1316      C1317   1.420       .  A
C1316      C1328   1.443       .  S
C1317      C1318   1.411       .  A
C1318      H1333   1.084       .  S
C1319      C1320   1.401       .  A
C1319      C1324   1.407       .  A
C1320      C1321   1.406       .  A
C1320      H1335   1.085       .  S
C1321      C1322   1.420       .  A
C1321      C1325   1.444       .  S
C1322      C1323   1.410       .  A
C1323      C1324   1.401       .  A
C1323      H1336   1.084       .  S
C1324      C1326   1.444       .  S
C1325      N1329   1.157       .  T
C1326      N1330   1.157       .  T
C1327      N1332   1.157       .  T
C1328      N1331   1.157       .  T
C1337      C1338   1.413   1_556  A
C1337      C1342   1.406       .  A
C1337      C1351   1.443       .  S
C1338      C1343   1.491       .  S
C1338      C1339   1.400       .  A
C1339      C1340   1.394       .  A
C1339      H1358   1.085       .  S
C1340      C1341   1.422   1_554  A
C1340      C1352   1.446       .  S
C1341      C1342   1.408       .  A
C1342      H1357   1.084       .  S
C1343      C1344   1.402       .  A
C1343      C1348   1.414       .  A
C1344      C1345   1.398       .  A
C1344      H1359   1.085       .  S
C1345      C1346   1.418       .  A
C1345      C1349   1.444       .  S
C1346      C1347   1.405       .  A
C1347      C1348   1.402       .  A
C1347      H1360   1.085       .  S
C1348      C1350   1.444       .  S
C1349      N1353   1.157       .  T
C1350      N1354   1.157       .  T
C1351      N1356   1.157       .  T
C1352      N1355   1.157       .  T
C1361      C1362   1.415       .  A
C1361      C1366   1.406       .  A
C1361      C1375   1.443       .  S
C1362      C1367   1.495       .  S
C1362      C1363   1.405       .  A
C1363      C1364   1.401       .  A
C1363      H1382   1.085       .  S
C1364      C1365   1.410       .  A
C1364      C1376   1.444       .  S
C1365      C1366   1.403       .  A
C1366      H1381   1.085       .  S
C1367      C1368   1.404       .  A
C1367      C1372   1.414       .  A
C1368      C1369   1.401       .  A
C1368      H1383   1.085       .  S
C1369      C1370   1.416       .  A
C1369      C1373   1.445       .  S
C1370      C1371   1.405       .  A
C1371      C1372   1.406       .  A
C1371      H1384   1.085       .  S
C1372      C1374   1.443       .  S
C1373      N1377   1.157       .  T
C1374      N1378   1.157       .  T
C1375      N1380   1.157       .  T
C1376      N1379   1.157       .  T
C1385      C1386   1.408       .  A
C1385      C1390   1.402       .  A
C1385      C1399   1.444       .  S
C1386      C1391   1.488       .  S
C1386      C1387   1.402       .  A
C1387      C1388   1.404       .  A
C1387      H1406   1.085       .  S
C1388      C1389   1.417       .  A
C1388      C1400   1.443       .  S
C1389      C1390   1.410       .  A
C1390      H1405   1.085       .  S
C1391      C1392   1.398       .  A
C1391      C1396   1.411       .  A
C1392      C1393   1.399       .  A
C1392      H1407   1.085       .  S
C1393      C1394   1.421       .  A
C1393      C1397   1.445       .  S
C1394      C1395   1.408       .  A
C1395      C1396   1.407       .  A
C1395      H1408   1.085       .  S
C1396      C1398   1.443       .  S
C1397      N1401   1.157       .  T
C1398      N1402   1.157       .  T
C1399      N1404   1.157       .  T
C1400      N1403   1.157       .  T
C1409      C1410   1.412       .  A
C1409      C1414   1.402       .  A
C1409      C1423   1.445       .  S
C1410      C1415   1.498       .  S
C1410      C1411   1.406       .  A
C1411      C1412   1.408       .  A
C1411      H1430   1.085       .  S
C1412      C1413   1.419       .  A
C1412      C1424   1.443       .  S
C1413      C1414   1.412       .  A
C1414      H1429   1.084       .  S
C1415      C1416   1.402       .  A
C1415      C1420   1.414       .  A
C1416      C1417   1.401       .  A
C1416      H1431   1.085       .  S
C1417      C1418   1.420       .  A
C1417      C1421   1.445       .  S
C1418      C1419   1.410       .  A
C1419      C1420   1.408       .  A
C1419      H1432   1.084       .  S
C1420      C1422   1.444       .  S
C1421      N1425   1.157       .  T
C1422      N1426   1.157       .  T
C1423      N1428   1.157       .  T
C1424      N1427   1.157       .  T
C1433      C1434   1.411       .  A
C1433      C1438   1.402       .  A
C1433      C1447   1.444       .  S
C1434      C1439   1.487       .  S
C1434      C1435   1.400       .  A
C1435      C1436   1.400       .  A
C1435      H1454   1.085       .  S
C1436      C1437   1.420       .  A
C1436      C1448   1.445       .  S
C1437      C1438   1.407       .  A
C1438      H1453   1.084       .  S
C1439      C1440   1.400       .  A
C1439      C1444   1.411       .  A
C1440      C1441   1.399       .  A
C1440      H1455   1.085       .  S
C1441      C1442   1.419       .  A
C1441      C1445   1.445       .  S
C1442      C1443   1.408       .  A
C1443      C1444   1.403       .  A
C1443      H1456   1.084       .  S
C1444      C1446   1.444       .  S
C1445      N1449   1.157       .  T
C1446      N1450   1.157       .  T
C1447      N1452   1.157       .  T
C1448      N1451   1.157       .  T
C1457      C1458   1.417       .  A
C1457      C1462   1.409       .  A
C1457      C1471   1.444       .  S
C1458      C1463   1.502       .  S
C1458      C1459   1.404       .  A
C1459      C1460   1.406       .  A
C1459      H1478   1.084       .  S
C1460      C1461   1.417       .  A
C1460      C1472   1.444       .  S
C1461      C1462   1.405       .  A
C1462      H1477   1.084       .  S
C1463      C1464   1.401   1_556  A
C1463      C1468   1.414   1_556  A
C1464      C1465   1.402       .  A
C1464      H1479   1.085   1_554  S
C1465      C1466   1.423       .  A
C1465      C1469   1.445       .  S
C1466      C1467   1.409       .  A
C1467      C1468   1.411       .  A
C1467      H1480   1.084       .  S
C1468      C1470   1.443       .  S
C1469      N1473   1.158       .  T
C1470      N1474   1.157       .  T
C1471      N1476   1.157       .  T
C1472      N1475   1.157       .  T
C1481      C1482   1.416       .  A
C1481      C1486   1.407       .  A
C1481      C1495   1.443       .  S
C1482      C1487   1.497       .  S
C1482      C1483   1.402       .  A
C1483      C1484   1.400       .  A
C1483      H1502   1.085       .  S
C1484      C1485   1.417       .  A
C1484      C1496   1.446       .  S
C1485      C1486   1.405       .  A
C1486      H1501   1.085       .  S
C1487      C1488   1.406       .  A
C1487      C1492   1.411       .  A
C1488      C1489   1.407       .  A
C1488      H1503   1.085       .  S
C1489      C1490   1.420       .  A
C1489      C1493   1.444       .  S
C1490      C1491   1.410       .  A
C1491      C1492   1.401       .  A
C1491      H1504   1.085       .  S
C1492      C1494   1.444       .  S
C1493      N1497   1.157       .  T
C1494      N1498   1.157       .  T
C1495      N1500   1.157       .  T
C1496      N1499   1.158       .  T
