geometry optimzed in LAMMPS
_audit_creation_date              2020-11-30 
_audit_creation_method            'lammps2cif' 
_symmetry_space_group_name_H-M    'P1' 
_symmetry_Int_Tables_number       1 
_symmetry_cell_setting            triclinic 
loop_ 
_symmetry_equiv_pos_as_xyz 
  x,y,z 
_cell_length_a                    39.4381856 
_cell_length_b                    39.42574532363029 
_cell_length_c                    70.3503049456772 
_cell_angle_alpha                 90.04628989051893 
_cell_angle_beta                  90.0853864092595 
_cell_angle_gamma                 120.00595594224811 
loop_ 
_atom_site_label 
_atom_site_type_symbol 
_atom_site_fract_x 
_atom_site_fract_y 
_atom_site_fract_z 
_atom_site_charge 
Zr1        Zr  0.62119120  0.76828532  0.64281228     2.17500
O2          O  0.58786691  0.72218010  0.66861873    -0.51400
O3          O  0.56916438  0.78348896  0.63726291    -0.74600
O4          O  0.62791467  0.80118806  0.67320247    -0.81400
O5          O  0.58147027  0.68357177  0.60733955    -0.83200
O6          O  0.68760856  0.85644555  0.67368694    -0.78800
O7          O  0.56818821  0.70320739  0.63544932    -0.90400
O8          O  0.58427676  0.82064087  0.61052160    -0.76400
O9          O  0.65396167  0.83530697  0.63367650    -0.85900
O10         O  0.61511232  0.76878113  0.60912758    -0.85600
O11         O  0.68746861  0.79362403  0.65356613    -0.72300
O12         O  0.65101685  0.73255701  0.63030144    -0.84500
Zr13       Zr  0.74495810  0.82722106  0.59747717     2.26400
Zr14       Zr  0.72031238  0.86082540  0.64365407     2.06300
Zr15       Zr  0.64554045  0.73445470  0.59645417     2.10000
Zr16       Zr  0.64871707  0.83560557  0.59994963     1.78800
O17         O  0.63630035  0.66899222  0.59250720    -0.93300
O18         O  0.65518718  0.89906818  0.60707831    -0.41100
O19         O  0.67898456  0.80136022  0.58648844    -0.77700
O20         O  0.71541092  0.86314688  0.60979486    -0.96400
O21         O  0.75085644  0.82645278  0.63114735    -0.89700
O22         O  0.71170779  0.76015582  0.60672052    -0.92500
C23         C  0.56144940  0.80163767  0.62431858     1.01200
C24         C  0.55957040  0.67863961  0.62179784     1.14200
C25         C  0.65472738  0.83222915  0.68142433     1.04900
O26         O  0.71725590  0.92091842  0.64495037    -0.94700
O27         O  0.78443227  0.91135731  0.63264784    -0.90400
O28         O  0.79962234  0.89171812  0.60505923    -0.83600
C29         C  0.80734730  0.91642020  0.61861050     1.11600
O30         O  0.68555509  0.70592026  0.66286704    -0.96700
Zr31       Zr  0.71788826  0.75957714  0.64022027     1.88900
O32         O  0.79936655  0.81739855  0.60440422    -0.73300
O33         O  0.76804680  0.88100429  0.66937759    -0.52600
O34         O  0.74958677  0.77844992  0.67127443    -0.97200
O35         O  0.72159801  0.70138339  0.63186907    -0.54500
O36         O  0.78611689  0.78330185  0.63199265    -0.73800
C37         C  0.80874992  0.80222688  0.61806014     0.98500
O38         O  0.77069343  0.86964640  0.56972173    -0.62600
O39         O  0.60615587  0.72966918  0.56877099    -0.57400
O40         O  0.74226774  0.78876111  0.56965273    -0.94100
O41         O  0.68318371  0.73283578  0.56939294    -0.92600
O42         O  0.60875410  0.81244710  0.57127242    -0.92900
O43         O  0.67639798  0.88073621  0.57333119    -0.91700
C44         C  0.71722743  0.75552953  0.56233224     1.17400
H45         H  0.58798009  0.75616209  0.60526535     0.33300
H46         H  0.72966352  0.88996442  0.60547450     0.44200
H47         H  0.72339140  0.74626017  0.60092071     0.37700
H48         H  0.68824909  0.79170208  0.66722351     0.34200
H49         H  0.63085254  0.89733533  0.60212654     0.26000
H50         H  0.76545722  0.90129543  0.67647064     0.31900
H51         H  0.77772972  0.79595552  0.66855033     0.37800
H52         H  0.59385547  0.82653471  0.57105188     0.32300
H53         H  0.59807665  0.70360408  0.56325381     0.31100
H54         H  0.61827529  0.65776600  0.58152966     0.32800
H55         H  0.74052969  0.70923182  0.62127437     0.31800
H56         H  0.68906210  0.86953096  0.56535156     0.35800
H57         H  0.75145980  0.85572537  0.55945113     0.28500
H58         H  0.56975077  0.72995969  0.67424294     0.32700
H59         H  0.70638268  0.70149613  0.66805957     0.35600
H60         H  0.58171001  0.72720596  0.57393101     0.28200
H61         H  0.76734388  0.89237686  0.57264363     0.41100
H62         H  0.74006074  0.93902181  0.65281378     0.31100
H63         H  0.65266368  0.89940350  0.62106526     0.38800
H64         H  0.69591122  0.68333271  0.62599869     0.30600
H65         H  0.75756469  0.85825715  0.67807497     0.30700
H66         H  0.60812952  0.72839480  0.67846480     0.30900
Zr67       Zr  0.81383963  0.57587682  0.36353048     2.17500
O68         O  0.76933481  0.53363225  0.33871544    -0.51400
O69         O  0.83084795  0.52485339  0.36906157    -0.74600
O70         O  0.84388703  0.58614474  0.33221389    -0.81400
O71         O  0.72766786  0.53964517  0.39787492    -0.83200
O72         O  0.90100675  0.64402859  0.33183862    -0.78800
O73         O  0.74651861  0.52652231  0.36959514    -0.90400
O74         O  0.87213418  0.54256572  0.39428187    -0.76400
O75         O  0.88096264  0.60837517  0.37265489    -0.85900
O76         O  0.81439526  0.57027868  0.39722481    -0.85600
O77         O  0.83880130  0.64220918  0.35285465    -0.72300
O78         O  0.77809906  0.60589618  0.37582912    -0.84500
Zr79       Zr  0.87390291  0.70034744  0.40874351     2.26400
Zr80       Zr  0.90624296  0.67479104  0.36259391     2.06300
Zr81       Zr  0.78044868  0.60142129  0.40973544     2.10000
Zr82       Zr  0.88125850  0.60377436  0.40646751     1.78800
O83         O  0.71759234  0.59828235  0.41361936    -0.93300
O84         O  0.94799555  0.61655253  0.40245276    -0.41100
O85         O  0.84741554  0.63443992  0.41979547    -0.77700
O86         O  0.90941150  0.67042924  0.39649651    -0.96400
O87         O  0.87226112  0.70573757  0.37512056    -0.89700
O88         O  0.80667743  0.66758343  0.39967074    -0.92500
C89         C  0.85238182  0.51901813  0.38084322     1.01200
C90         C  0.72151055  0.51868094  0.38291204     1.14200
C91         C  0.87491531  0.61228153  0.32384375     1.04900
O92         O  0.96627918  0.67181327  0.36023101    -0.94700
O93         O  0.95751754  0.73847565  0.37362185    -0.90400
O94         O  0.93817918  0.75503573  0.40069820    -0.83600
C95         C  0.96307501  0.76225225  0.38731684     1.11600
O96         O  0.76000106  0.64639932  0.33939057    -0.96700
Zr97       Zr  0.80512177  0.67282773  0.36622847     1.88900
O98         O  0.86154289  0.75328720  0.40269733    -0.73300
O99         O  0.92638212  0.72366468  0.33751533    -0.52600
O100        O  0.82918676  0.71557770  0.33857415    -0.97200
O101        O  0.74096746  0.66478599  0.37335522    -0.54500
O102        O  0.82139385  0.73766569  0.37713219    -0.73800
C103        C  0.84254779  0.76112835  0.39040602     0.98500
O104        O  0.91427408  0.72620628  0.43724103    -0.62600
O105        O  0.76817033  0.55621582  0.43581478    -0.57400
O106        O  0.83705711  0.69826109  0.43677041    -0.94100
O107        O  0.78131979  0.63872056  0.43762967    -0.92600
O108        O  0.85226741  0.55700851  0.43237821    -0.92900
O109        O  0.91972127  0.62599206  0.43562430    -0.91700
C110        C  0.80415953  0.67333098  0.44419403     1.17400
H111        H  0.80163933  0.54316084  0.40107029     0.33300
H112        H  0.93626418  0.68461538  0.40078042     0.44200
H113        H  0.79296519  0.67925646  0.40548169     0.37700
H114        H  0.83642063  0.64358699  0.33927297     0.34200
H115        H  0.94992634  0.59738061  0.41079816     0.26000
H116        H  0.94763035  0.72231810  0.33069827     0.31900
H117        H  0.85611369  0.73603610  0.34204616     0.37800
H118        H  0.86738228  0.54315593  0.43285868     0.32300
H119        H  0.78967553  0.57128838  0.44495914     0.31100
H120        H  0.70356781  0.57767619  0.42328220     0.32800
H121        H  0.74545385  0.68338519  0.38381542     0.31800
H122        H  0.92899324  0.65439609  0.43622510     0.35800
H123        H  0.90304076  0.70428598  0.44644097     0.28500
H124        H  0.78166012  0.51928126  0.33323140     0.32700
H125        H  0.75323944  0.66672253  0.33607883     0.35600
H126        H  0.74451298  0.55345597  0.44214336     0.28200
H127        H  0.93988919  0.72895254  0.43386850     0.41100
H128        H  0.95744517  0.64396031  0.35753128     0.31100
H129        H  0.94865872  0.60753266  0.38939552     0.38800
H130        H  0.72618240  0.63858277  0.37928657     0.30600
H131        H  0.90423124  0.71303407  0.32841979     0.30700
H132        H  0.77012288  0.55127821  0.32849696     0.30900
Zr133      Zr  0.41294158  0.16534291  0.36559906     2.17500
O134        O  0.45048829  0.15533668  0.34092894    -0.51400
O135        O  0.46385889  0.23308450  0.37017120    -0.74600
O136        O  0.40526738  0.18704996  0.33412976    -0.81400
O137        O  0.45228599  0.12289392  0.40328713    -0.83200
O138        O  0.34714633  0.18602423  0.33316621    -0.78800
O139        O  0.46515677  0.15247558  0.37440390    -0.90400
O140        O  0.44669313  0.25733099  0.39531968    -0.76400
O141        O  0.38087915  0.20110093  0.37353937    -0.85900
O142        O  0.41793178  0.17367098  0.39924219    -0.85600
O143        O  0.34672334  0.12467580  0.35462867    -0.72300
O144        O  0.38222584  0.10016958  0.37847543    -0.84500
Zr145      Zr  0.28805029  0.10328808  0.41018166     2.26400
Zr146      Zr  0.31460520  0.16032336  0.36345628     2.06300
Zr147      Zr  0.38688683  0.10910734  0.41232700     2.10000
Zr148      Zr  0.38422655  0.20760913  0.40724039     1.78800
O149        O  0.39329771  0.05108945  0.41568166    -0.93300
O150        O  0.37323010  0.26151614  0.39923981    -0.41100
O151        O  0.35380478  0.14361882  0.42132810    -0.77700
O152        O  0.31776677  0.16835854  0.39730642    -0.96400
O153        O  0.28298394  0.09581914  0.37652700    -0.89700
O154        O  0.32093219  0.06879653  0.40174628    -0.92500
C155        C  0.46993922  0.26053121  0.38187621     1.01200
C156        C  0.47444465  0.13861497  0.38874894     1.14200
C157        C  0.37910627  0.19172734  0.32552545     1.04900
O158        O  0.31726338  0.22337588  0.36229798    -0.94700
O159        O  0.24974163  0.14517925  0.37324196    -0.90400
O160        O  0.23430510  0.11319099  0.40139664    -0.83600
C161        C  0.22648585  0.12869970  0.38723863     1.11600
O162        O  0.34184578  0.04346500  0.34119188    -0.96700
Zr163      Zr  0.31524369  0.06079187  0.36837183     1.88900
O164        O  0.23347194  0.03823037  0.40433892    -0.73300
O165        O  0.26795919  0.13518691  0.33718495    -0.52600
O166        O  0.27352970  0.04128630  0.34023532    -0.97200
O167        O  0.32156088  0.00409431  0.37645284    -0.54500
O168        O  0.24925581  0.01342144  0.37883572    -0.73800
C169        C  0.22559083  0.01149332  0.39189667     0.98500
O170        O  0.26491250  0.12186720  0.43826897    -0.62600
O171        O  0.42408791  0.14121362  0.44092435    -0.57400
O172        O  0.28827727  0.06675791  0.43802229    -0.94100
O173        O  0.34765962  0.07025700  0.43913585    -0.92600
O174        O  0.42572737  0.22893500  0.43544262    -0.92900
O175        O  0.36118265  0.22998590  0.43393195    -0.91700
C176        C  0.31284552  0.05809559  0.44539254     1.17400
H177        H  0.44496329  0.18838945  0.40325280     0.33300
H178        H  0.30341959  0.18111053  0.40120926     0.44200
H179        H  0.30895455  0.04324996  0.40758674     0.37700
H180        H  0.34583793  0.12091688  0.34103933     0.34200
H181        H  0.39460469  0.28463815  0.40574698     0.26000
H182        H  0.27000818  0.15872215  0.33102585     0.31900
H183        H  0.26178260  0.05835375  0.34027845     0.37800
H184        H  0.45016757  0.22959509  0.43157341     0.32300
H185        H  0.43012645  0.12193656  0.44669125     0.31100
H186        H  0.40202735  0.05190654  0.42896372     0.32800
H187        H  0.30265070  0.99072501  0.38686900     0.31800
H188        H  0.33313894  0.21006764  0.43519233     0.35800
H189        H  0.28723956  0.13229910  0.44726719     0.28500
H190        H  0.46746693  0.18143572  0.33521340     0.32700
H191        H  0.32398453  0.01508874  0.33909541     0.35600
H192        H  0.44962713  0.16240636  0.43626706     0.28200
H193        H  0.26345756  0.14524371  0.43439072     0.41100
H194        H  0.33391463  0.23712747  0.35121490     0.31100
H195        H  0.37980127  0.26655978  0.38558023     0.38800
H196        H  0.34758406  0.01527269  0.38258898     0.30600
H197        H  0.27911140  0.12468526  0.32783587     0.30700
H198        H  0.43139679  0.13971964  0.33087101     0.30900
Zr199      Zr  0.21736133  0.77579117  0.64160626     2.17500
O200        O  0.26173210  0.78989717  0.66837279    -0.51400
O201        O  0.20306268  0.70910191  0.63583421    -0.74600
O202        O  0.18383431  0.74778725  0.67156438    -0.81400
O203        O  0.30223266  0.82261269  0.60658092    -0.83200
O204        O  0.12839802  0.75182740  0.67265439    -0.78800
O205        O  0.28284882  0.78857387  0.63432438    -0.90400
O206        O  0.16410008  0.68654437  0.60966080    -0.76400
O207        O  0.15032511  0.74070553  0.63238751    -0.85900
O208        O  0.21690443  0.77031113  0.60787977    -0.85600
O209        O  0.19116918  0.81557755  0.65267132    -0.72300
O210        O  0.25237560  0.84176628  0.62974704    -0.84500
Zr211      Zr  0.15697659  0.84056240  0.59682780     2.26400
Zr212      Zr  0.12411895  0.78067545  0.64272965     2.06300
Zr213      Zr  0.25090729  0.83562318  0.59588598     2.10000
Zr214      Zr  0.15004487  0.73642713  0.59860796     1.78800
O215        O  0.31503019  0.89452470  0.59450501    -0.93300
O216        O  0.08483440  0.68154269  0.60501855    -0.41100
O217        O  0.18394445  0.80144780  0.58569993    -0.77700
O218        O  0.12158116  0.77465313  0.60872768    -0.96400
O219        O  0.15755448  0.84577185  0.63048243    -0.89700
O220        O  0.22399355  0.87494801  0.60627943    -0.92500
C221        C  0.18392750  0.68289162  0.62316580     1.01200
C222        C  0.30770681  0.80562499  0.62091000     1.14200
C223        C  0.15301846  0.74331017  0.68005415     1.04900
O224        O  0.06298896  0.71832969  0.64308985    -0.94700
O225        O  0.07455450  0.79641246  0.63327986    -0.90400
O226        O  0.09341201  0.83154729  0.60577314    -0.83600
C227        C  0.06959203  0.81519088  0.61967903     1.11600
O228        O  0.27311971  0.89959635  0.66490700    -0.96700
Zr229      Zr  0.22413978  0.88039164  0.63982336     1.88900
O230        O  0.16777933  0.90558916  0.60338907    -0.73300
O231        O  0.10628001  0.80886953  0.66904170    -0.52600
O232        O  0.19943225  0.89298259  0.66913596    -0.97200
O233        O  0.28433777  0.94114078  0.63254286    -0.54500
O234        O  0.20172727  0.92565622  0.63118469    -0.73800
C235        C  0.18274107  0.92959288  0.61733916     0.98500
O236        O  0.11460753  0.82339446  0.56895562    -0.62600
O237        O  0.26277755  0.80573081  0.56825418    -0.57400
O238        O  0.19421503  0.87656539  0.56897715    -0.94100
O239        O  0.25050598  0.87385761  0.56871869    -0.92600
O240        O  0.17279300  0.71715503  0.57064119    -0.92900
O241        O  0.10875263  0.71864638  0.57036706    -0.91700
C242        C  0.22739287  0.88483046  0.56170909     1.17400
H243        H  0.22981644  0.75616182  0.60392015     0.33300
H244        H  0.09469428  0.76205852  0.60445668     0.44200
H245        H  0.23769867  0.90076928  0.60071845     0.37700
H246        H  0.19309593  0.81796349  0.66634432     0.34200
H247        H  0.08302648  0.65972440  0.59726279     0.26000
H248        H  0.08467016  0.78621466  0.67564614     0.31900
H249        H  0.21145457  0.92182754  0.66973951     0.37800
H250        H  0.19655982  0.71676827  0.57484370     0.32300
H251        H  0.26409521  0.78297897  0.57329361     0.31100
H252        H  0.32695113  0.89161818  0.58268421     0.32800
H253        H  0.27642747  0.95621301  0.62420635     0.31800
H254        H  0.09571745  0.73450379  0.57115129     0.35800
H255        H  0.12677572  0.81434376  0.55940716     0.28500
H256        H  0.25429673  0.76434025  0.67430264     0.32700
H257        H  0.27882744  0.92590489  0.66913153     0.35600
H258        H  0.23799296  0.79405607  0.56094152     0.28200
H259        H  0.09023790  0.79926329  0.57258205     0.41100
H260        H  0.06995314  0.69949526  0.64857123     0.31100
H261        H  0.08611490  0.67388868  0.61828111     0.38800
H262        H  0.29917867  0.93311264  0.62412245     0.30600
H263        H  0.12865709  0.81898164  0.67799347     0.30700
H264        H  0.25468144  0.80402713  0.67777714     0.30900
Zr265      Zr  0.21027484  0.36649818  0.64294644     2.17500
O266        O  0.20607359  0.40852566  0.66722967    -0.51400
O267        O  0.27867320  0.41637376  0.63804643    -0.74600
O268        O  0.22830378  0.35635507  0.67504407    -0.81400
O269        O  0.16620602  0.40442219  0.60597176    -0.83200
O270        O  0.22601622  0.29773297  0.67585473    -0.78800
O271        O  0.19496710  0.41726634  0.63516540    -0.90400
O272        O  0.30272815  0.39821379  0.61322965    -0.76400
O273        O  0.24371737  0.33203735  0.63545486    -0.85900
O274        O  0.21924094  0.37102712  0.60929270    -0.85600
O275        O  0.16666745  0.30078099  0.65357032    -0.72300
O276        O  0.14576928  0.33751216  0.62906213    -0.84500
Zr277      Zr  0.14547925  0.24027973  0.59830608     2.26400
Zr278      Zr  0.20021798  0.26613917  0.64546637     2.06300
Zr279      Zr  0.15539048  0.34109646  0.59530081     2.10000
Zr280      Zr  0.25144004  0.33546604  0.60177733     1.78800
O281        O  0.10020484  0.35121445  0.58947166    -0.93300
O282        O  0.30330857  0.32155533  0.61002156    -0.41100
O283        O  0.18794778  0.30569617  0.58705735    -0.77700
O284        O  0.20997203  0.26934924  0.61178011    -0.96400
O285        O  0.13621062  0.23604557  0.63179861    -0.89700
O286        O  0.11272730  0.27556603  0.60566310    -0.92500
C287        C  0.30621735  0.42204302  0.62648268     1.01200
C288        C  0.17970015  0.42544360  0.62104245     1.14200
C289        C  0.23206494  0.32967835  0.68371660     1.04900
O290        O  0.26204845  0.26766346  0.65042843    -0.94700
O291        O  0.18899048  0.20247039  0.63533345    -0.90400
O292        O  0.15411610  0.18573680  0.60777318    -0.83600
C293        C  0.17179117  0.17904570  0.62136818     1.11600
O294        O  0.08361579  0.30080459  0.66380778    -0.96700
Zr295      Zr  0.10340022  0.27113852  0.63895612     1.88900
O296        O  0.07929429  0.18750107  0.60365482    -0.73300
O297        O  0.16536890  0.21888150  0.67058431    -0.52600
O298        O  0.08409914  0.23331208  0.66830261    -0.97200
O299        O  0.04760477  0.27799182  0.62940247    -0.54500
O300        O  0.05501011  0.20538698  0.62859286    -0.73800
C301        C  0.05223146  0.18121964  0.61558614     0.98500
O302        O  0.16313235  0.21284755  0.57155390    -0.62600
O303        O  0.19301804  0.38209261  0.56869013    -0.57400
O304        O  0.11198437  0.24223011  0.56958197    -0.94100
O305        O  0.11744140  0.30237073  0.56788949    -0.92600
O306        O  0.27269223  0.37784100  0.57394928    -0.92900
O307        O  0.27169185  0.30999899  0.57522335    -0.91700
C308        C  0.10530018  0.26752616  0.56148211     1.17400
H309        H  0.23452777  0.39796811  0.60524132     0.33300
H310        H  0.22235117  0.25449383  0.60814566     0.44200
H311        H  0.08757093  0.26434578  0.59942333     0.37700
H312        H  0.16226722  0.30000911  0.66709390     0.34200
H313        H  0.32611598  0.34000574  0.60231662     0.26000
H314        H  0.18611218  0.21922059  0.67866633     0.31900
H315        H  0.07619671  0.20619205  0.66444900     0.37800
H316        H  0.30116358  0.38765998  0.57297247     0.32300
H317        H  0.19359806  0.36364317  0.55931612     0.31100
H318        H  0.10809073  0.36897154  0.57837028     0.32800
H319        H  0.03391844  0.25806321  0.61937733     0.31800
H320        H  0.25044406  0.28247425  0.57382648     0.35800
H321        H  0.17353296  0.23386269  0.56188521     0.28500
H322        H  0.23236970  0.42302160  0.67314627     0.32700
H323        H  0.05554056  0.28212745  0.66616781     0.35600
H324        H  0.17581195  0.39081255  0.56285094     0.28200
H325        H  0.18654589  0.21181679  0.57580423     0.41100
H326        H  0.26950948  0.26303530  0.63767506     0.31100
H327        H  0.31070479  0.33120218  0.62322264     0.38800
H328        H  0.05930630  0.30336057  0.62263026     0.30600
H329        H  0.15368530  0.23115540  0.67850509     0.30700
H330        H  0.18863672  0.39078823  0.67725742     0.30900
Zr331      Zr  0.82469858  0.17465579  0.36492477     2.17500
O332        O  0.83932110  0.22205040  0.33950945    -0.51400
O333        O  0.75760151  0.16002053  0.37076641    -0.74600
O334        O  0.79785078  0.14332612  0.33444871    -0.81400
O335        O  0.87070890  0.25863619  0.40058377    -0.83200
O336        O  0.80335885  0.08887985  0.33276920    -0.78800
O337        O  0.83619994  0.23920879  0.37287585    -0.90400
O338        O  0.73674330  0.12442106  0.39800311    -0.76400
O339        O  0.78968625  0.10720838  0.37339013    -0.85900
O340        O  0.81899374  0.17345767  0.39861746    -0.85600
O341        O  0.86517002  0.14913437  0.35372837    -0.72300
O342        O  0.89072851  0.20941165  0.37696582    -0.84500
Zr343      Zr  0.88759282  0.11244831  0.40951863     2.26400
Zr344      Zr  0.83012428  0.08161511  0.36283176     2.06300
Zr345      Zr  0.88429880  0.20731348  0.41076123     2.10000
Zr346      Zr  0.78457548  0.10624873  0.40717538     1.78800
O347        O  0.94672879  0.26829427  0.41015381    -0.93300
O348        O  0.72506926  0.04488323  0.39985773    -0.41100
O349        O  0.84913971  0.13999111  0.42052425    -0.77700
O350        O  0.82241125  0.07777168  0.39673695    -0.96400
O351        O  0.89477430  0.11419953  0.37584593    -0.89700
O352        O  0.92298584  0.17967999  0.40063086    -0.92500
C353        C  0.73259155  0.14317778  0.38418480     1.01200
C354        C  0.85290586  0.26372698  0.38647429     1.14200
C355        C  0.79436311  0.11327857  0.32553971     1.04900
O356        O  0.76808235  0.02048922  0.36022142    -0.94700
O357        O  0.84292890  0.03016178  0.37283263    -0.90400
O358        O  0.87571748  0.04760307  0.40103510    -0.83600
C359        C  0.85941568  0.02384382  0.38706211     1.11600
O360        O  0.94964310  0.22848713  0.34127424    -0.96700
Zr361      Zr  0.92961542  0.18119942  0.36714423     1.88900
O362        O  0.95182378  0.12195830  0.40342832    -0.73300
O363        O  0.85879490  0.06339308  0.33689887    -0.52600
O364        O  0.94246793  0.15422196  0.33867253    -0.97200
O365        O  0.98969228  0.24280149  0.37356436    -0.54500
O366        O  0.97666855  0.16255290  0.37792945    -0.73800
C367        C  0.97841293  0.14085417  0.39104438     0.98500
O368        O  0.87194563  0.07117034  0.43769054    -0.62600
O369        O  0.85976103  0.22354121  0.43905794    -0.57400
O370        O  0.92204912  0.14909592  0.43796882    -0.94100
O371        O  0.92083674  0.20633515  0.43843413    -0.92600
O372        O  0.77134935  0.12929451  0.43683943    -0.92900
O373        O  0.76504084  0.05774501  0.43241156    -0.91700
C374        C  0.93079221  0.18239308  0.44531751     1.17400
H375        H  0.80508499  0.18645204  0.40282277     0.33300
H376        H  0.80938063  0.05071767  0.40071283     0.44200
H377        H  0.94855388  0.19294380  0.40651115     0.37700
H378        H  0.86809524  0.15177408  0.34009740     0.34200
H379        H  0.70460968  0.04506972  0.40792884     0.26000
H380        H  0.83622514  0.04163773  0.33026819     0.31900
H381        H  0.97045084  0.16185094  0.33958769     0.37800
H382        H  0.74282001  0.11946339  0.43663446     0.32300
H383        H  0.87346870  0.25252520  0.43932030     0.31100
H384        H  0.94519082  0.28391705  0.42079223     0.32800
H385        H  0.99992866  0.23883437  0.38570908     0.31800
H386        H  0.78762267  0.05358336  0.43406674     0.35800
H387        H  0.86077918  0.08206456  0.44681563     0.28500
H388        H  0.81366701  0.21578944  0.33405432     0.32700
H389        H  0.97468992  0.23164833  0.33652414     0.35600
H390        H  0.83220845  0.21542128  0.43603845     0.28200
H391        H  0.84930555  0.04555828  0.43404321     0.41100
H392        H  0.74909915  0.02833367  0.35589305     0.31100
H393        H  0.71800323  0.04820490  0.38675509     0.38800
H394        H  0.98083552  0.26161836  0.37669116     0.30600
H395        H  0.86896311  0.08557051  0.32786846     0.30700
H396        H  0.85237755  0.21515158  0.32945087     0.30900
Zr397      Zr  0.72039844  0.81868031  0.90853165     2.17500
O398        O  0.75323240  0.85882765  0.93635510    -0.51400
O399        O  0.77282706  0.80571112  0.90108095    -0.74600
O400        O  0.71727681  0.77897700  0.93569276    -0.81400
O401        O  0.75733851  0.90621029  0.87561813    -0.83200
O402        O  0.65875117  0.72254703  0.93543227    -0.78800
O403        O  0.77174229  0.88612294  0.90328817    -0.90400
O404        O  0.75450312  0.76513833  0.87546230    -0.76400
O405        O  0.68661107  0.75209787  0.89848760    -0.85900
O406        O  0.72528421  0.81993798  0.87475560    -0.85600
O407        O  0.65457146  0.79228764  0.91997811    -0.72300
O408        O  0.69044252  0.85516904  0.89756824    -0.84500
Zr409      Zr  0.59414095  0.76196563  0.86411309     2.26400
Zr410      Zr  0.62043878  0.72570482  0.90892263     2.06300
Zr411      Zr  0.69413966  0.85489663  0.86367513     2.10000
Zr412      Zr  0.69105258  0.75332830  0.86486590     1.78800
O413        O  0.68672271  0.91256778  0.86281758    -0.93300
O414        O  0.67925314  0.68737334  0.87064742    -0.41100
O415        O  0.66014283  0.78813082  0.85321314    -0.77700
O416        O  0.62429654  0.72506734  0.87485879    -0.96400
O417        O  0.58947074  0.76097074  0.89787438    -0.89700
O418        O  0.62772742  0.82879310  0.87399636    -0.92500
C419        C  0.77858486  0.78522236  0.88872494     1.01200
C420        C  0.77934495  0.91147995  0.89011903     1.14200
C421        C  0.69291684  0.74514613  0.94248756     1.04900
O422        O  0.61370052  0.66089063  0.91002210    -0.94700
O423        O  0.55563894  0.67546672  0.89814134    -0.90400
O424        O  0.54589506  0.69330699  0.86884758    -0.83600
C425        C  0.53586858  0.66898634  0.88267148     1.11600
O426        O  0.65641234  0.87367426  0.93391673    -0.96700
Zr427      Zr  0.62405151  0.82749009  0.90792652     1.88900
O428        O  0.54393846  0.77907306  0.87129949    -0.73300
O429        O  0.57975231  0.71381929  0.93693951    -0.52600
O430        O  0.58614557  0.80171938  0.93698182    -0.97200
O431        O  0.62742107  0.89040019  0.90302208    -0.54500
O432        O  0.55840005  0.81177118  0.89935118    -0.73800
C433        C  0.53565049  0.79479746  0.88518829     0.98500
O434        O  0.54400696  0.72473511  0.84024830    -0.62600
O435        O  0.74023768  0.87813974  0.83725167    -0.57400
O436        O  0.60962012  0.78945657  0.83195551    -0.94100
O437        O  0.66664525  0.84756024  0.83205103    -0.92600
O438        O  0.73415483  0.77809184  0.83740868    -0.92900
O439        O  0.66694695  0.71436539  0.83596267    -0.91700
C440        C  0.63662823  0.82003800  0.82358956     1.17400
H441        H  0.75224430  0.83284562  0.87064455     0.33300
H442        H  0.61068323  0.69853416  0.87008944     0.44200
H443        H  0.61613156  0.84292151  0.86833751     0.37700
H444        H  0.65473174  0.79309381  0.93370280     0.34200
H445        H  0.69798922  0.68480265  0.86226362     0.26000
H446        H  0.57761737  0.68994670  0.94273208     0.31900
H447        H  0.56297071  0.77666000  0.93314220     0.37800
H448        H  0.72555996  0.79438342  0.83051361     0.32300
H449        H  0.75570754  0.90696366  0.83867584     0.31100
H450        H  0.70380905  0.92849303  0.85224740     0.32800
H451        H  0.60721038  0.88987436  0.91155053     0.31800
H452        H  0.64052386  0.71090538  0.83406655     0.35800
H453        H  0.53619496  0.74297657  0.83480040     0.28500
H454        H  0.77269466  0.85128873  0.94027995     0.32700
H455        H  0.63565168  0.87637973  0.94043524     0.35600
H456        H  0.75890459  0.86893755  0.84005559     0.28200
H457        H  0.55728035  0.71910652  0.82979558     0.41100
H458        H  0.61579058  0.65451544  0.89661886     0.31100
H459        H  0.68933756  0.68832967  0.88365242     0.38800
H460        H  0.61694137  0.88912827  0.89009064     0.30600
H461        H  0.59628410  0.73508614  0.94593546     0.30700
H462        H  0.73333795  0.84892695  0.94657220     0.30900
Zr463      Zr  0.84986590  0.69264588  0.09702450     2.17500
O464        O  0.89386508  0.72033462  0.06994255    -0.51400
O465        O  0.83860502  0.74712798  0.10237576    -0.74600
O466        O  0.81466085  0.68913966  0.06788062    -0.81400
O467        O  0.93446945  0.72656399  0.13175793    -0.83200
O468        O  0.75749271  0.63086386  0.06758426    -0.78800
O469        O  0.91641222  0.74299855  0.10403744    -0.90400
O470        O  0.79261324  0.72890379  0.12546985    -0.76400
O471        O  0.78241354  0.66090239  0.10524671    -0.85900
O472        O  0.84779166  0.69882752  0.13067268    -0.85600
O473        O  0.82366848  0.62625567  0.08654063    -0.72300
O474        O  0.88372769  0.66193913  0.11047705    -0.84500
Zr475      Zr  0.78573956  0.56842636  0.14253571     2.26400
Zr476      Zr  0.75613566  0.59428222  0.09561794     2.06300
Zr477      Zr  0.87994928  0.66671665  0.14420106     2.10000
Zr478      Zr  0.78036833  0.66687270  0.13873569     1.78800
O479        O  0.93734773  0.65961631  0.14853743    -0.93300
O480        O  0.71438020  0.65525943  0.13330456    -0.41100
O481        O  0.81238085  0.63506098  0.15273041    -0.77700
O482        O  0.75166232  0.59943693  0.12939060    -0.96400
O483        O  0.78871710  0.56256604  0.10900862    -0.89700
O484        O  0.85346803  0.60002847  0.13466486    -0.92500
C485        C  0.81568286  0.75317524  0.11299093     1.01200
C486        C  0.94120793  0.74881526  0.11725681     1.14200
C487        C  0.78169783  0.66429402  0.06039663     1.04900
O488        O  0.69339451  0.59155296  0.09223531    -0.94700
O489        O  0.70410832  0.53008625  0.10543640    -0.90400
O490        O  0.72184881  0.51484314  0.13348637    -0.83600
C491        C  0.69798738  0.50723018  0.11959795     1.11600
O492        O  0.90169343  0.61976376  0.07428230    -0.96700
Zr493      Zr  0.85625928  0.59515803  0.10099021     1.88900
O494        O  0.80056886  0.51585459  0.13826957    -0.73300
O495        O  0.74623196  0.55303711  0.06799425    -0.52600
O496        O  0.83223477  0.55202847  0.07338612    -0.97200
O497        O  0.92094870  0.60488117  0.10861025    -0.54500
O498        O  0.84035067  0.53126037  0.11254707    -0.73800
C499        C  0.82025106  0.50839068  0.12611535     0.98500
O500        O  0.74310818  0.53808284  0.16987459    -0.62600
O501        O  0.90150656  0.71606852  0.16922434    -0.57400
O502        O  0.81346775  0.57643579  0.17415520    -0.94100
O503        O  0.86911776  0.63605230  0.17535139    -0.92600
O504        O  0.80690714  0.71453973  0.16448064    -0.92900
O505        O  0.74130787  0.64539051  0.16764296    -0.91700
C506        C  0.84316256  0.60375054  0.18292082     1.17400
H507        H  0.86085232  0.72602083  0.13446640     0.33300
H508        H  0.72458992  0.58560846  0.13333712     0.44200
H509        H  0.86631183  0.58806758  0.14126465     0.37700
H510        H  0.82581513  0.62548898  0.07288636     0.34200
H511        H  0.71309226  0.67600865  0.14065560     0.26000
H512        H  0.75663846  0.53586528  0.07187871     0.31900
H513        H  0.84524238  0.53611833  0.07403767     0.37800
H514        H  0.82066147  0.70504734  0.17281551     0.32300
H515        H  0.93006053  0.72646034  0.17036270     0.31100
H516        H  0.94614441  0.66858901  0.16171106     0.32800
H517        H  0.91995092  0.58032347  0.10459664     0.31800
H518        H  0.73094280  0.61676623  0.16808383     0.35800
H519        H  0.71960756  0.54042497  0.16749421     0.28500
H520        H  0.88653617  0.73804285  0.06346802     0.32700
H521        H  0.90958984  0.59994211  0.07181837     0.35600
H522        H  0.89919535  0.73791820  0.16371165     0.28200
H523        H  0.73389725  0.50971350  0.16893478     0.41100
H524        H  0.68533816  0.59296242  0.10539484     0.31100
H525        H  0.71426294  0.66254303  0.11985017     0.38800
H526        H  0.92223537  0.60450286  0.12263800     0.30600
H527        H  0.71753986  0.53532720  0.06725444     0.30700
H528        H  0.88619992  0.69819483  0.06104242     0.30900
Zr529      Zr  0.25835029  0.09274691  0.09925519     2.17500
O530        O  0.22862682  0.10660303  0.07215768    -0.51400
O531        O  0.20541095  0.02765455  0.10620804    -0.74600
O532        O  0.25749705  0.05557674  0.07138336    -0.81400
O533        O  0.22765879  0.14824814  0.13237025    -0.83200
O534        O  0.31478942  0.05507281  0.07077929    -0.78800
O535        O  0.20805271  0.10908812  0.10623762    -0.90400
O536        O  0.22310345  0.00360900  0.13124363    -0.76400
O537        O  0.29055618  0.05794906  0.10840688    -0.85900
O538        O  0.25496362  0.08932298  0.13307708    -0.85600
O539        O  0.32332594  0.13022715  0.08684044    -0.72300
O540        O  0.29057082  0.15902086  0.11052221    -0.84500
Zr541      Zr  0.38631374  0.15828719  0.14191491     2.26400
Zr542      Zr  0.35606297  0.09605825  0.09692409     2.06300
Zr543      Zr  0.28879178  0.15542471  0.14447492     2.10000
Zr544      Zr  0.28717502  0.05457805  0.14207092     1.78800
O545        O  0.29759763  0.22100646  0.14670198    -0.93300
O546        O  0.29366381  0.99691159  0.13717780    -0.41100
O547        O  0.32095921  0.12037938  0.15381228    -0.77700
O548        O  0.35349373  0.09109993  0.13107272    -0.96400
O549        O  0.38965439  0.16230473  0.10813615    -0.89700
O550        O  0.35442370  0.19364028  0.13294189    -0.92500
C551        C  0.19894263  0.00069930  0.11821507     1.01200
C552        C  0.20352011  0.13027335  0.11873043     1.14200
C553        C  0.28057139  0.04493939  0.06409211     1.04900
O554        O  0.36428833  0.03966305  0.09131802    -0.94700
O555        O  0.41866814  0.10437120  0.10744415    -0.90400
O556        O  0.43315030  0.13669675  0.13567936    -0.83600
C557        C  0.44004927  0.11879538  0.12235343     1.11600
O558        O  0.32433494  0.21110195  0.07322149    -0.96700
Zr559      Zr  0.35608135  0.19586931  0.09897674     1.88900
O560        O  0.43788288  0.22481617  0.13426358    -0.73300
O561        O  0.39538943  0.13076697  0.06935592    -0.52600
O562        O  0.39120319  0.20677258  0.06909312    -0.97200
O563        O  0.35322393  0.25536857  0.10489008    -0.54500
O564        O  0.42266401  0.24419342  0.10673308    -0.73800
C565        C  0.44589723  0.24908850  0.12051554     0.98500
O566        O  0.43021091  0.16885316  0.16860281    -0.62600
O567        O  0.24132348  0.13066118  0.17030658    -0.57400
O568        O  0.37561926  0.17286279  0.17431286    -0.94100
O569        O  0.32077663  0.17782358  0.17545083    -0.92600
O570        O  0.24547851  0.04137143  0.16977887    -0.92900
O571        O  0.31270323  0.03897695  0.17024056    -0.91700
C572        C  0.35157108  0.18028267  0.18314973     1.17400
H573        H  0.22813820  0.07596132  0.13740266     0.33300
H574        H  0.36652804  0.07739128  0.13551814     0.44200
H575        H  0.36720541  0.21949632  0.13854129     0.37700
H576        H  0.32247539  0.13084834  0.07312510     0.34200
H577        H  0.27271018  0.97624678  0.14503259     0.26000
H578        H  0.42180544  0.14871026  0.07454671     0.31900
H579        H  0.40544314  0.23551829  0.06731261     0.37800
H580        H  0.25596971  0.06707369  0.17618705     0.32300
H581        H  0.23705300  0.15265909  0.17360335     0.31100
H582        H  0.28262739  0.22027267  0.15812913     0.32800
H583        H  0.37034461  0.26796824  0.11603331     0.31800
H584        H  0.33637607  0.06395166  0.17372507     0.35800
H585        H  0.42622063  0.14271760  0.17195394     0.28500
H586        H  0.20784653  0.08074313  0.06752050     0.32700
H587        H  0.34361600  0.23778737  0.06885133     0.35600
H588        H  0.21633064  0.11075430  0.16448051     0.28200
H589        H  0.45719538  0.18367858  0.16353374     0.41100
H590        H  0.35162027  0.02237263  0.10236975     0.31100
H591        H  0.28495962  0.98876133  0.12390933     0.38800
H592        H  0.32636856  0.24596179  0.10966266     0.30600
H593        H  0.39840786  0.11076461  0.06224083     0.30700
H594        H  0.24888085  0.11644455  0.06210848     0.30900
Zr595      Zr  0.13360423  0.84084421  0.90551608     2.17500
O596        O  0.08764431  0.82576686  0.93160975    -0.51400
O597        O  0.14466823  0.90613250  0.89963100    -0.74600
O598        O  0.16837386  0.87577194  0.93436153    -0.81400
O599        O  0.05073602  0.78891692  0.86960813    -0.83200
O600        O  0.22569006  0.87511107  0.93616207    -0.78800
O601        O  0.06673544  0.82278200  0.89740537    -0.90400
O602        O  0.18908750  0.93402913  0.87592919    -0.76400
O603        O  0.20125587  0.87773140  0.89800107    -0.85900
O604        O  0.13680829  0.84849984  0.87183278    -0.85600
O605        O  0.16104290  0.80252677  0.91721336    -0.72300
O606        O  0.10202578  0.77572283  0.89252696    -0.84500
Zr607      Zr  0.20169824  0.78270741  0.86175753     2.26400
Zr608      Zr  0.22891640  0.83928655  0.90871681     2.06300
Zr609      Zr  0.10640409  0.78376957  0.85876098     2.10000
Zr610      Zr  0.20464641  0.88519188  0.86449053     1.78800
O611        O  0.05040012  0.71806895  0.85510754    -0.93300
O612        O  0.26844750  0.94105876  0.87226900    -0.41100
O613        O  0.17407157  0.82107552  0.85060620    -0.77700
O614        O  0.23392785  0.84777980  0.87490303    -0.96400
O615        O  0.19852382  0.77514186  0.89533421    -0.89700
O616        O  0.13406027  0.74544426  0.86942069    -0.92500
C617        C  0.16581879  0.93468120  0.88848162     1.01200
C618        C  0.04261849  0.80386569  0.88387825     1.14200
C619        C  0.20111753  0.88475937  0.94244192     1.04900
O620        O  0.29153278  0.89977483  0.91142812    -0.94700
O621        O  0.28088900  0.82586109  0.90022254    -0.90400
O622        O  0.26351178  0.79082474  0.87262987    -0.83600
C623        C  0.28663543  0.80722704  0.88676859     1.11600
O624        O  0.08132796  0.71742902  0.92771348    -0.96700
Zr625      Zr  0.13130915  0.73847017  0.90310333     1.88900
O626        O  0.18985267  0.71650548  0.86638931    -0.73300
O627        O  0.23885812  0.80899521  0.93676131    -0.52600
O628        O  0.15680451  0.72665965  0.93240204    -0.97200
O629        O  0.07217787  0.67707569  0.89525392    -0.54500
O630        O  0.15473173  0.69432901  0.89373863    -0.73800
C631        C  0.17419540  0.69138309  0.87983750     0.98500
O632        O  0.25058395  0.80580457  0.83652315    -0.62600
O633        O  0.08560959  0.80883245  0.83221735    -0.57400
O634        O  0.17229781  0.75570536  0.83089775    -0.94100
O635        O  0.11818986  0.76188008  0.82836623    -0.92600
O636        O  0.18127757  0.90444143  0.83675927    -0.92900
O637        O  0.24956614  0.90461496  0.83770654    -0.91700
C638        C  0.14301185  0.75300879  0.82154899     1.17400
H639        H  0.12332458  0.86194374  0.86761408     0.33300
H640        H  0.26114815  0.86132636  0.87120379     0.44200
H641        H  0.12189443  0.72033145  0.86308023     0.37700
H642        H  0.15821847  0.80007133  0.93086046     0.34200
H643        H  0.26808222  0.96388989  0.86664817     0.26000
H644        H  0.26481834  0.82886204  0.94173291     0.31900
H645        H  0.14899516  0.69858318  0.93194595     0.37800
H646        H  0.16012411  0.87948832  0.83146951     0.32300
H647        H  0.05808691  0.78844171  0.82977305     0.31100
H648        H  0.04084760  0.71742113  0.84201459     0.32800
H649        H  0.07871546  0.66706883  0.88374077     0.31800
H650        H  0.23728802  0.88215334  0.82880049     0.35800
H651        H  0.24045689  0.81631819  0.82663540     0.28500
H652        H  0.09207662  0.85146719  0.93613878     0.32700
H653        H  0.07948491  0.69353894  0.93332135     0.35600
H654        H  0.08391596  0.83125058  0.83745210     0.28200
H655        H  0.27357694  0.82946058  0.84176713     0.41100
H656        H  0.30264789  0.90492797  0.89844553     0.31100
H657        H  0.26762637  0.94462071  0.88616004     0.38800
H658        H  0.05339595  0.68504635  0.89074359     0.30600
H659        H  0.21997804  0.80798010  0.94632228     0.30700
H660        H  0.09743377  0.81597384  0.94199118     0.30900
Zr661      Zr  0.11448859  0.23965350  0.90956796     2.17500
O662        O  0.12817263  0.21369389  0.93816535    -0.51400
O663        O  0.04899990  0.18621363  0.90319834    -0.74600
O664        O  0.07578024  0.24102146  0.93614835    -0.81400
O665        O  0.16053593  0.20086943  0.87489282    -0.83200
O666        O  0.08346435  0.30212541  0.93811982    -0.78800
O667        O  0.12788551  0.18697428  0.90302078    -0.90400
O668        O  0.02435961  0.20411648  0.87850775    -0.76400
O669        O  0.08216745  0.27457530  0.90095426    -0.85900
O670        O  0.10766090  0.23417436  0.87587552    -0.85600
O671        O  0.15588021  0.30536447  0.92084640    -0.72300
O672        O  0.17976161  0.26812905  0.89716826    -0.84500
Zr673      Zr  0.18111908  0.36416372  0.86493585     2.26400
Zr674      Zr  0.12374647  0.34054620  0.91129870     2.06300
Zr675      Zr  0.17253419  0.26402479  0.86333083     2.10000
Zr676      Zr  0.07486293  0.26867239  0.86748511     1.78800
O677        O  0.23618489  0.26832897  0.86125081    -0.93300
O678        O  0.01893614  0.27685009  0.87468918    -0.41100
O679        O  0.13931709  0.29828994  0.85405697    -0.77700
O680        O  0.11572836  0.33548401  0.87742542    -0.96400
O681        O  0.18833417  0.36957342  0.89856093    -0.89700
O682        O  0.21410450  0.32977864  0.87363552    -0.92500
C683        C  0.02151544  0.17976954  0.89142849     1.01200
C684        C  0.14486413  0.17915134  0.88954366     1.14200
C685        C  0.06926875  0.26665771  0.94397982     1.04900
O686        O  0.06719816  0.34944505  0.91420585    -0.94700
O687        O  0.14005213  0.40639771  0.90123035    -0.90400
O688        O  0.17521759  0.42042648  0.87388224    -0.83600
C689        C  0.15903776  0.42928429  0.88733681     1.11600
O690        O  0.23151828  0.30975627  0.93712084    -0.96700
Zr691      Zr  0.22034049  0.33452366  0.90737077     1.88900
O692        O  0.24986494  0.41270369  0.86899428    -0.73300
O693        O  0.15825709  0.38114284  0.93871318    -0.52600
O694        O  0.24325138  0.38511563  0.93182194    -0.97200
O695        O  0.27228319  0.31848058  0.90405684    -0.54500
O696        O  0.27339867  0.39395142  0.89385758    -0.73800
C697        C  0.27749157  0.41741212  0.88029999     0.98500
O698        O  0.16800870  0.40018836  0.84055931    -0.62600
O699        O  0.14602694  0.21842646  0.83669425    -0.57400
O700        O  0.20305550  0.35522366  0.83386023    -0.94100
O701        O  0.19897218  0.29560157  0.83293069    -0.92600
O702        O  0.05593318  0.22719607  0.83931747    -0.92900
O703        O  0.05886086  0.29786861  0.84095306    -0.91700
C704        C  0.20637797  0.32819063  0.82531934     1.17400
H705        H  0.09294514  0.20715936  0.87183816     0.33300
H706        H  0.10383555  0.35047024  0.87322305     0.44200
H707        H  0.23920592  0.34037136  0.86743122     0.37700
H708        H  0.15768647  0.30524078  0.93453811     0.34200
H709        H  0.99686090  0.25576854  0.86748229     0.26000
H710        H  0.13995665  0.38891594  0.94409563     0.31900
H711        H  0.27219247  0.39834307  0.93131882     0.37800
H712        H  0.07892119  0.24006258  0.83079582     0.32300
H713        H  0.15854103  0.20208142  0.83753463     0.31100
H714        H  0.23972726  0.25888490  0.87372100     0.32800
H715        H  0.29435689  0.33840277  0.91172205     0.31800
H716        H  0.08292897  0.31041999  0.83313468     0.35800
H717        H  0.19008524  0.41043124  0.83147632     0.28500
H718        H  0.10235533  0.19251262  0.94256486     0.32700
H719        H  0.25836757  0.32917377  0.94126342     0.35600
H720        H  0.11824437  0.20046925  0.83995666     0.28200
H721        H  0.14513464  0.38002237  0.83341420     0.41100
H722        H  0.05607145  0.34497666  0.90121414     0.31100
H723        H  0.01274473  0.26900858  0.88817142     0.38800
H724        H  0.28123497  0.32518888  0.89074595     0.30600
H725        H  0.15884622  0.36292418  0.94820478     0.30700
H726        H  0.13641903  0.23463232  0.94784011     0.30900
Zr727      Zr  0.86062907  0.10669722  0.09718054     2.17500
O728        O  0.84907540  0.06333378  0.07016866    -0.51400
O729        O  0.92793548  0.12298222  0.10295308    -0.74600
O730        O  0.89076587  0.14269175  0.06821380    -0.81400
O731        O  0.81577948  0.02151313  0.13171366    -0.83200
O732        O  0.88259022  0.19563560  0.06718245    -0.78800
O733        O  0.84871489  0.04127515  0.10366114    -0.90400
O734        O  0.95094628  0.16409753  0.12836513    -0.76400
O735        O  0.89157171  0.17426468  0.10534772    -0.85900
O736        O  0.86910711  0.10946805  0.13082324    -0.85600
O737        O  0.81655163  0.12818358  0.08641731    -0.72300
O738        O  0.79629267  0.06870091  0.11035351    -0.84500
Zr739      Zr  0.79175604  0.16244186  0.14255019     2.26400
Zr740      Zr  0.84721642  0.19565146  0.09557892     2.06300
Zr741      Zr  0.80487183  0.07306055  0.14397932     2.10000
Zr742      Zr  0.89977353  0.17707126  0.13885159     1.78800
O743        O  0.74085704  0.01464187  0.14759339    -0.93300
O744        O  0.95473126  0.24121563  0.13075942    -0.41100
O745        O  0.83593949  0.14069943  0.15253945    -0.77700
O746        O  0.85649336  0.20026826  0.12934062    -0.96400
O747        O  0.78326901  0.15888083  0.10893197    -0.89700
O748        O  0.76075545  0.09468613  0.13438698    -0.92500
C749        C  0.95475179  0.14395597  0.11505080     1.01200
C750        C  0.83219282  0.01634080  0.11709204     1.14200
C751        C  0.89526092  0.17392840  0.06019259     1.04900
O752        O  0.90402935  0.26058535  0.09146781    -0.94700
O753        O  0.83323200  0.24607134  0.10632432    -0.90400
O754        O  0.79632154  0.22419672  0.13317366    -0.83600
C755        C  0.81372569  0.24971320  0.12001096     1.11600
O756        O  0.74164124  0.04637820  0.07447893    -0.96700
Zr757      Zr  0.75308215  0.09148882  0.10069950     1.88900
O758        O  0.72240041  0.14089451  0.13849920    -0.73300
O759        O  0.81004048  0.20302210  0.06983339    -0.52600
O760        O  0.73009714  0.11205518  0.07325615    -0.97200
O761        O  0.69947306  0.02550164  0.10719160    -0.54500
O762        O  0.70115996  0.10162061  0.11248879    -0.73800
C763        C  0.69576315  0.11952444  0.12633367     0.98500
O764        O  0.80703956  0.20897099  0.16870521    -0.62600
O765        O  0.83231603  0.05308487  0.16979707    -0.57400
O766        O  0.77154517  0.13212350  0.17394954    -0.94100
O767        O  0.78840024  0.08483973  0.17555772    -0.92600
O768        O  0.91988690  0.15833998  0.16789270    -0.92900
O769        O  0.91642461  0.22467189  0.16436158    -0.91700
C770        C  0.77644858  0.10665053  0.18309863     1.17400
H771        H  0.88466637  0.09805046  0.13478719     0.33300
H772        H  0.86794732  0.22723774  0.13335067     0.44200
H773        H  0.73597394  0.07996695  0.14084739     0.37700
H774        H  0.81378497  0.12569562  0.07276142     0.34200
H775        H  0.97804595  0.24127851  0.13604880     0.26000
H776        H  0.82887732  0.22783510  0.06353373     0.31900
H777        H  0.70128671  0.09479907  0.07329684     0.37800
H778        H  0.89532877  0.14267105  0.17510440     0.32300
H779        H  0.82029019  0.02432580  0.16858062     0.31100
H780        H  0.73552612  0.01278173  0.16141254     0.32800
H781        H  0.67753888  0.02241715  0.09910868     0.31800
H782        H  0.89215262  0.21445375  0.17196133     0.35800
H783        H  0.81967179  0.20131546  0.17866844     0.28500
H784        H  0.87539966  0.06982988  0.06561762     0.32700
H785        H  0.71582063  0.03950976  0.06903741     0.35600
H786        H  0.86019637  0.06378209  0.16645072     0.28200
H787        H  0.82878398  0.23427658  0.16412099     0.41100
H788        H  0.91425402  0.26926565  0.10449718     0.31100
H789        H  0.95763199  0.24045817  0.11681485     0.38800
H790        H  0.69104524  0.02644295  0.12032728     0.30600
H791        H  0.80564788  0.18234798  0.06053750     0.30700
H792        H  0.83812782  0.07236436  0.05997460     0.30900
C793        C  0.93746586  0.22182753  0.01194657    -0.22600
C794        C  0.96553732  0.21050799  0.00905727     0.09400
C795        C  0.96927400  0.18598203  0.02243302     0.09800
C796        C  0.94495693  0.17349916  0.03849075    -0.17500
C797        C  0.91776794  0.18604211  0.04199179    -0.27900
C798        C  0.91358879  0.21010753  0.02823176     0.18100
C799        C  0.99122148  0.22519161  0.99207087     0.12100
C800        C  0.99945866  0.17357702  0.01993014    -0.12200
H801        H  0.94805983  0.15460284  0.04863001     0.12400
C802        C  0.88366627  0.22302233  0.03022253    -0.23100
H803        H  0.93461016  0.24038457  0.00146231     0.08000
C804        C  0.98014402  0.20501067  0.97455973     0.04400
C805        C  0.00624031  0.21921203  0.95913970    -0.20300
C806        C  0.04275887  0.25374085  0.96067444    -0.12600
C807        C  0.05344346  0.27432566  0.97814983     0.13100
C808        C  0.02756413  0.25968739  0.99365320    -0.23000
C809        C  0.94078472  0.16859007  0.97217914    -0.06100
H810        H  0.99796182  0.20349232  0.94573468     0.14600
C811        C  0.09264286  0.31083908  0.98073941    -0.16300
H812        H  0.03580667  0.27500399  0.00716069     0.08900
H813        H  0.88273101  0.23908763  0.01745558     0.06800
H814        H  0.89105459  0.24315546  0.04252199     0.08000
H815        H  0.85407467  0.19705875  0.03208768     0.07000
H816        H  0.02920936  0.19981032  0.01995182     0.01900
H817        H  0.99454612  0.15774922  0.00624235     0.02400
H818        H  0.99814011  0.15387644  0.03153830     0.05900
H819        H  0.93660446  0.15652425  0.95754201     0.04900
H820        H  0.91720322  0.17549336  0.97503729    -0.00900
H821        H  0.93802383  0.14573523  0.98228082     0.00600
H822        H  0.09503613  0.33419380  0.97110670     0.04300
H823        H  0.11643328  0.30441014  0.97755377     0.06200
H824        H  0.09680639  0.32218745  0.99552127     0.07100
C825        C  0.19580828  0.61189663  0.89517099    -0.22600
C826        C  0.17750334  0.58429473  0.88062272     0.09400
C827        C  0.16161327  0.59371750  0.86483812     0.09800
C828        C  0.16246921  0.62979660  0.86447169    -0.17500
C829        C  0.17888521  0.65651851  0.87954829    -0.27900
C830        C  0.19722182  0.64816649  0.89470455     0.18100
C831        C  0.17365127  0.54503885  0.88263978     0.12100
C832        C  0.14348826  0.56552071  0.84850593    -0.12200
H833        H  0.14908720  0.63659937  0.85271123     0.12400
C834        C  0.21922378  0.67712303  0.91036770    -0.23100
H835        H  0.20877299  0.60493525  0.90706213     0.08000
C836        C  0.20489278  0.53847239  0.87858615     0.04400
C837        C  0.19934035  0.50054603  0.88052427    -0.20300
C838        C  0.16331116  0.46896617  0.88657820    -0.12600
C839        C  0.13205455  0.47579997  0.89069299     0.13100
C840        C  0.13773650  0.51377738  0.88870835    -0.23000
C841        C  0.24381602  0.57134811  0.87194045    -0.06100
H842        H  0.22334193  0.49551209  0.87729050     0.14600
C843        C  0.09220127  0.44311120  0.89640538    -0.16300
H844        H  0.11388797  0.51916288  0.89174102     0.08900
H845        H  0.24982374  0.68291869  0.91081305     0.06800
H846        H  0.20506136  0.66475745  0.92423907     0.08000
H847        H  0.22064535  0.70568907  0.90836155     0.07000
H848        H  0.11804822  0.53783953  0.85357896     0.01900
H849        H  0.16547444  0.55906110  0.84223481     0.02400
H850        H  0.13310751  0.57771349  0.83714738     0.05900
H851        H  0.26487333  0.56106455  0.86906393     0.04900
H852        H  0.25670919  0.59451676  0.88300495    -0.00900
H853        H  0.23979059  0.58404745  0.85862777     0.00600
H854        H  0.09405750  0.43093432  0.91032009     0.04300
H855        H  0.08083730  0.41968998  0.88543441     0.06200
H856        H  0.07079365  0.45344470  0.89791135     0.07100
C857        C  0.12557695  0.00416157  0.89402602    -0.22600
C858        C  0.15936945  0.04040686  0.89124811     0.09400
C859        C  0.19558325  0.04224595  0.88824338     0.09800
C860        C  0.19691252  0.00732246  0.88744114    -0.17500
C861        C  0.16294772  0.97070257  0.89006267    -0.27900
C862        C  0.12680444  0.96924636  0.89356621     0.18100
C863        C  0.15552352  0.07582142  0.89074336     0.12100
C864        C  0.23265885  0.08103396  0.88590557    -0.12200
H865        H  0.22465275  0.00863415  0.88491250     0.12400
C866        C  0.08902655  0.93111104  0.89608727    -0.23100
H867        H  0.09795189  0.00325398  0.89631454     0.08000
C868        C  0.14550884  0.08778748  0.87379199     0.04400
C869        C  0.14145651  0.12114329  0.87395760    -0.20300
C870        C  0.14687230  0.14266617  0.89073489    -0.12600
C871        C  0.15641115  0.13018672  0.90780949     0.13100
C872        C  0.16063132  0.09685860  0.90755791    -0.23000
C873        C  0.13938358  0.06545316  0.85552119    -0.06100
H874        H  0.13406442  0.13053593  0.86088553     0.14600
C875        C  0.16345898  0.15239673  0.92618615    -0.16300
H876        H  0.16805565  0.08713977  0.92051406     0.08900
H877        H  0.08397307  0.91169510  0.88368065     0.06800
H878        H  0.06345674  0.93560316  0.89725328     0.08000
H879        H  0.09017319  0.91647713  0.90934144     0.07000
H880        H  0.23818393  0.09891284  0.89896490     0.01900
H881        H  0.22980698  0.09703483  0.87359609     0.02400
H882        H  0.25841003  0.07728636  0.88344755     0.05900
H883        H  0.13154785  0.07867529  0.84358358     0.04900
H884        H  0.11528828  0.03477359  0.85728536    -0.00900
H885        H  0.16665042  0.06541612  0.85166608     0.00600
H886        H  0.13601504  0.15110108  0.93087522     0.04300
H887        H  0.18679405  0.18336143  0.92422706     0.06200
H888        H  0.17285950  0.13970640  0.93774029     0.07100
C889        C  0.22811236  0.96735568  0.97805126    -0.22600
C890        C  0.23328165  0.95092776  0.99475250     0.09400
C891        C  0.22773144  0.91266075  0.99416287     0.09800
C892        C  0.21709737  0.89165706  0.97692973    -0.17500
C893        C  0.21148046  0.90787019  0.96028619    -0.27900
C894        C  0.21740246  0.94631646  0.96079839     0.18100
C895        C  0.24557855  0.97467705  0.01258172     0.12100
C896        C  0.23353142  0.89423351  0.01168810    -0.12200
H897        H  0.21305059  0.86237202  0.97643117     0.12400
C898        C  0.21390645  0.96564851  0.94300230    -0.23100
H899        H  0.23289937  0.99691565  0.97849904     0.08000
C900        C  0.28530371  0.00167877  0.01639100     0.04400
C901        C  0.29566800  0.02403385  0.03320926    -0.20300
C902        C  0.26732429  0.01990411  0.04658327    -0.12600
C903        C  0.22743545  0.99167587  0.04298691     0.13100
C904        C  0.21717939  0.96969885  0.02599428    -0.23000
C905        C  0.31684990  0.00645077  0.00279295    -0.06100
H906        H  0.32621787  0.04510834  0.03585497     0.14600
C907        C  0.19557590  0.98338371  0.05718500    -0.16300
H908        H  0.18678860  0.94834693  0.02314636     0.08900
H909        H  0.23439851  0.96619256  0.93202808     0.06800
H910        H  0.22111727  0.99630215  0.94570893     0.08000
H911        H  0.18352452  0.94922030  0.93741676     0.07000
H912        H  0.21320903  0.89255661  0.02302791     0.01900
H913        H  0.26414626  0.91210962  0.01682556     0.02400
H914        H  0.22779374  0.86409767  0.00883781     0.05900
H915        H  0.34646612  0.02843324  0.00796422     0.04900
H916        H  0.31215287  0.01620475  0.98873432    -0.00900
H917        H  0.31605242  0.97805855  0.00109151     0.00600
H918        H  0.19125529  0.00902025  0.05840883     0.04300
H919        H  0.20345017  0.97660910  0.07128292     0.06200
H920        H  0.16710420  0.95788083  0.05285401     0.07100
C921        C  0.04707384  0.14542356  0.09762628    -0.22600
C922        C  0.06027172  0.13713358  0.11455464     0.09400
C923        C  0.03919272  0.13183815  0.13152294     0.09800
C924        C  0.00538690  0.13510800  0.13120583    -0.17500
C925        C  0.99193046  0.14331315  0.11429790    -0.27900
C926        C  0.01333178  0.14894300  0.09727993     0.18100
C927        C  0.09712546  0.13570917  0.11451525     0.12100
C928        C  0.05199866  0.12201470  0.14990316    -0.12200
H929        H  0.98888224  0.13047770  0.14419825     0.12400
C930        C  0.00254622  0.16020036  0.07872168    -0.23100
H931        H  0.06369891  0.14999713  0.08467669     0.08000
C932        C  0.09850069  0.10266739  0.10791711     0.04400
C933        C  0.13374465  0.10214329  0.10921369    -0.20300
C934        C  0.16755589  0.13349232  0.11736659    -0.12600
C935        C  0.16602350  0.16685054  0.12381874     0.13100
C936        C  0.13091557  0.16755344  0.12209248    -0.23000
C937        C  0.06259927  0.06763851  0.09992417    -0.06100
H938        H  0.13460251  0.07667180  0.10414132     0.14600
C939        C  0.20106105  0.20213803  0.13230634    -0.16300
H940        H  0.12946344  0.19283403  0.12706265     0.08900
H941        H  0.99452317  0.13643370  0.06815301     0.06800
H942        H  0.02801247  0.18745887  0.07326307     0.08000
H943        H  0.97799616  0.16606891  0.08005858     0.07000
H944        H  0.08154153  0.14604949  0.15395737     0.01900
H945        H  0.05287888  0.09446517  0.14817779     0.02400
H946        H  0.03166523  0.11788531  0.16172906     0.05900
H947        H  0.06853945  0.04388218  0.09583084     0.04900
H948        H  0.05240593  0.07630408  0.08708048    -0.00900
H949        H  0.03894300  0.05581292  0.11072628     0.00600
H950        H  0.19498260  0.22628089  0.13522577     0.04300
H951        H  0.22615292  0.21344010  0.12231971     0.06200
H952        H  0.20907052  0.19421823  0.14605587     0.07100
C953        C  0.52246323  0.10598681  0.14276792    -0.22600
C954        C  0.54767862  0.11688226  0.12713129     0.09400
C955        C  0.53662771  0.12657053  0.10978394     0.09800
C956        C  0.50069981  0.12566961  0.10852099    -0.17500
C957        C  0.47556728  0.11537957  0.12421588    -0.27900
C958        C  0.48623705  0.10455350  0.14149448     0.18100
C959        C  0.58484471  0.11636339  0.12881722     0.12100
C960        C  0.56315768  0.13863052  0.09271397    -0.12200
H961        H  0.49261760  0.13401367  0.09533017     0.12400
C962        C  0.45973822  0.08983031  0.15860216    -0.23100
H963        H  0.53077419  0.09776428  0.15593404     0.08000
C964        C  0.61864760  0.14765977  0.13703669     0.04400
C965        C  0.65397972  0.14709050  0.13670252    -0.20300
C966        C  0.65652169  0.11626609  0.12797960    -0.12600
C967        C  0.62180480  0.08407421  0.12040641     0.13100
C968        C  0.58654904  0.08462123  0.12106625    -0.23000
C969        C  0.61766830  0.18219081  0.14557794    -0.06100
H970        H  0.68005572  0.17163738  0.14267751     0.14600
C971        C  0.62096534  0.04865978  0.11174795    -0.16300
H972        H  0.56016007  0.06055504  0.11499650     0.08900
H973        H  0.47305389  0.11105261  0.17048452     0.06800
H974        H  0.45612813  0.06122262  0.16312249     0.08000
H975        H  0.42996989  0.08486163  0.15578868     0.07000
H976        H  0.56778127  0.11423833  0.08825628     0.01900
H977        H  0.59184501  0.16460859  0.09631716     0.02400
H978        H  0.55057023  0.14635915  0.08045508     0.05900
H979        H  0.64669263  0.20427564  0.15133753     0.04900
H980        H  0.59617774  0.17222029  0.15738426    -0.00900
H981        H  0.60902132  0.19657729  0.13455350     0.00600
H982        H  0.59072816  0.02544162  0.10806341     0.04300
H983        H  0.63288083  0.03594101  0.12203306     0.06200
H984        H  0.63805640  0.05680092  0.09836403     0.07100
C985        C  0.03830533  0.83214721  0.09941056    -0.22600
C986        C  0.05195694  0.85514981  0.11586649     0.09400
C987        C  0.02951557  0.84297359  0.13264217     0.09800
C988        C  0.99380227  0.80772931  0.13263402    -0.17500
C989        C  0.97993701  0.78448599  0.11621692    -0.27900
C990        C  0.00271623  0.79658401  0.09939608     0.18100
C991        C  0.09002457  0.89187949  0.11539414     0.12100
C992        C  0.04329306  0.86718319  0.15054360    -0.12200
H993        H  0.97625565  0.79852888  0.14546151     0.12400
C994        C  0.99145632  0.77231632  0.08147325    -0.23100
H995        H  0.05593792  0.84166251  0.08661402     0.08000
C996        C  0.12539478  0.89214837  0.11873943     0.04400
C997        C  0.16054689  0.92809348  0.11960768    -0.20300
C998        C  0.16106581  0.96366099  0.11688770    -0.12600
C999        C  0.12542532  0.96309849  0.11316858     0.13100
C1000       C  0.09035873  0.92711989  0.11249116    -0.23000
C1001       C  0.12584683  0.85450283  0.12153754    -0.06100
H1002       H  0.18778405  0.92842872  0.12230723     0.14600
C1003       C  0.12370482  0.00018296  0.11067798    -0.16300
H1004       H  0.06286822  0.92639850  0.10999312     0.08900
H1005       H  0.01617407  0.76834573  0.07686622     0.06800
H1006       H  0.98494782  0.78762907  0.07003479     0.08000
H1007       H  0.96592801  0.74261769  0.08333554     0.07000
H1008       H  0.04705585  0.89662693  0.14790698     0.01900
H1009       H  0.07169973  0.87039700  0.15513218     0.02400
H1010       H  0.02203064  0.85345710  0.16234253     0.05900
H1011       H  0.15598611  0.85987600  0.12392197     0.04900
H1012       H  0.11374413  0.83573020  0.10872070    -0.00900
H1013       H  0.10777160  0.83864034  0.13406267     0.00600
H1014       H  0.09311654  0.99412080  0.10924408     0.04300
H1015       H  0.13951475  0.01560192  0.09758199     0.06200
H1016       H  0.13697144  0.01955893  0.12321967     0.07100
C1017       C  0.59074839  0.42807463  0.11621767    -0.22600
C1018       C  0.59300816  0.39473229  0.12084237     0.09400
C1019       C  0.62961727  0.39828201  0.12500615     0.09800
C1020       C  0.66333179  0.43547575  0.12467636    -0.17500
C1021       C  0.66127379  0.46900699  0.11988316    -0.27900
C1022       C  0.62442344  0.46526450  0.11569707     0.18100
C1023       C  0.55636308  0.35647129  0.12134765     0.12100
C1024       C  0.63303416  0.36284247  0.12969662    -0.12200
H1025       H  0.69155626  0.43833584  0.12786887     0.12400
C1026       C  0.62008488  0.50034327  0.11139124    -0.23100
H1027       H  0.56236096  0.42490588  0.11313107     0.08000
C1028       C  0.53259073  0.34377989  0.13771040     0.04400
C1029       C  0.49710397  0.30805755  0.13723267    -0.20300
C1030       C  0.48446813  0.28541578  0.12057169    -0.12600
C1031       C  0.50861016  0.29815514  0.10421484     0.13100
C1032       C  0.54442867  0.33345465  0.10487887    -0.23000
C1033       C  0.54451261  0.36826579  0.15553736    -0.06100
H1034       H  0.47860644  0.29830161  0.14973424     0.14600
C1035       C  0.49717377  0.27445009  0.08612368    -0.16300
H1036       H  0.56297978  0.34356657  0.09240043     0.08900
H1037       H  0.58892254  0.49203244  0.10940628     0.06800
H1038       H  0.63568844  0.51449144  0.09806167     0.08000
H1039       H  0.63213399  0.52161107  0.12332877     0.07000
H1040       H  0.62268455  0.34227897  0.11745268     0.01900
H1041       H  0.61492622  0.34780143  0.14234037     0.02400
H1042       H  0.66376669  0.37086247  0.13285624     0.05900
H1043       H  0.52270948  0.35401672  0.16707481     0.04900
H1044       H  0.54719293  0.39715469  0.15254288    -0.00900
H1045       H  0.57313409  0.37282189  0.16066052     0.00600
H1046       H  0.47092966  0.27351254  0.07986184     0.04300
H1047       H  0.49095725  0.24422281  0.08912093     0.06200
H1048       H  0.52080854  0.28740930  0.07532159     0.07100
C1049       C  0.84232435  0.92747533  0.12810422    -0.22600
C1050       C  0.82680606  0.90519587  0.11153735     0.09400
C1051       C  0.81340794  0.91971463  0.09673069     0.09800
C1052       C  0.81635708  0.95654854  0.09878910    -0.17500
C1053       C  0.83164469  0.97875079  0.11545753    -0.27900
C1054       C  0.84524106  0.96418826  0.13022472     0.18100
C1055       C  0.82412871  0.86636007  0.11036276     0.12100
C1056       C  0.79605245  0.89642255  0.07880337    -0.12200
H1057       H  0.80590417  0.96773299  0.08750634     0.12400
C1058       C  0.86414707  0.98688859  0.14813090    -0.23100
H1059       H  0.85249508  0.91617084  0.13946101     0.08000
C1060       C  0.85773062  0.86269849  0.10815521     0.04400
C1061       C  0.85386440  0.82530936  0.10857239    -0.20300
C1062       C  0.81721270  0.79145572  0.11124768    -0.12600
C1063       C  0.78337314  0.79519501  0.11267748     0.13100
C1064       C  0.78738133  0.83263851  0.11235350    -0.23000
C1065       C  0.89760946  0.89817143  0.10529318    -0.06100
H1066       H  0.87980315  0.82260076  0.10730398     0.14600
C1067       C  0.74285698  0.75998823  0.11406022    -0.16300
H1068       H  0.76172984  0.83574202  0.11395780     0.08900
H1069       H  0.89333766  0.98952447  0.14996265     0.06800
H1070       H  0.84562959  0.97114856  0.16056515     0.08000
H1071       H  0.86902816  0.01703662  0.14790148     0.07000
H1072       H  0.76906922  0.86848806  0.08219161     0.01900
H1073       H  0.81753263  0.88997399  0.07193275     0.02400
H1074       H  0.78810572  0.91259762  0.06846535     0.05900
H1075       H  0.92048828  0.88995059  0.10318120     0.04900
H1076       H  0.90593877  0.91763809  0.11791039    -0.00900
H1077       H  0.89716915  0.91451151  0.09253563     0.00600
H1078       H  0.71986335  0.76837727  0.11335770     0.04300
H1079       H  0.73932147  0.74479686  0.12778468     0.06200
H1080       H  0.73783774  0.73959658  0.10209367     0.07100
C1081       C  0.77992982  0.32453137  0.12558662    -0.22600
C1082       C  0.81578345  0.35963068  0.12462634     0.09400
C1083       C  0.85060765  0.35853910  0.12176549     0.09800
C1084       C  0.84878840  0.32216784  0.12010088    -0.17500
C1085       C  0.81291554  0.28682581  0.12113404    -0.27900
C1086       C  0.77790121  0.28809283  0.12365732     0.18100
C1087       C  0.81589079  0.39724908  0.12526568     0.12100
C1088       C  0.88957036  0.39577188  0.12031347    -0.12200
H1089       H  0.87560277  0.32128027  0.11815429     0.12400
C1090       C  0.73780407  0.25203111  0.12350008    -0.23100
H1091       H  0.75318387  0.32563876  0.12734167     0.08000
C1092       C  0.81083172  0.41383696  0.10853618     0.04400
C1093       C  0.81215116  0.44992424  0.10951836    -0.20300
C1094       C  0.81856140  0.47010139  0.12681824    -0.12600
C1095       C  0.82379713  0.45351040  0.14365983     0.13100
C1096       C  0.82192509  0.41695836  0.14265375    -0.23000
C1097       C  0.80423970  0.39352964  0.08960623    -0.06100
H1098       H  0.80803562  0.46250749  0.09662356     0.14600
C1099       C  0.83320743  0.47397806  0.16267033    -0.16300
H1100       H  0.82616425  0.40416945  0.15543826     0.08900
H1101       H  0.71972485  0.25490281  0.11218797     0.06800
H1102       H  0.72338463  0.24911673  0.13742322     0.08000
H1103       H  0.73832098  0.22470613  0.12058813     0.07000
H1104       H  0.89554627  0.41300305  0.13362643     0.01900
H1105       H  0.88919296  0.41356824  0.10818125     0.02400
H1106       H  0.91391124  0.38971909  0.11803325     0.05900
H1107       H  0.80116552  0.41074290  0.07792078     0.04900
H1108       H  0.77705871  0.36453002  0.09011657    -0.00900
H1109       H  0.82938678  0.38934964  0.08621253     0.00600
H1110       H  0.80894660  0.45675091  0.17275153     0.04300
H1111       H  0.83811191  0.50413921  0.16198313     0.06200
H1112       H  0.86050807  0.47621305  0.16840322     0.07100
C1113       C  0.38724116  0.48933873  0.88152541    -0.22600
C1114       C  0.38799429  0.52430923  0.87719155     0.09400
C1115       C  0.35315412  0.52365858  0.87202388     0.09800
C1116       C  0.31764629  0.48804089  0.87249240    -0.17500
C1117       C  0.31632183  0.45309719  0.87799449    -0.27900
C1118       C  0.35188943  0.45359498  0.88187663     0.18100
C1119       C  0.42562051  0.56139341  0.87868399     0.12100
C1120       C  0.35350449  0.56062366  0.86627654    -0.12200
H1121       H  0.29066239  0.48777622  0.86917091     0.12400
C1122       C  0.35318529  0.41674052  0.88599861    -0.23100
H1123       H  0.41446377  0.49022227  0.88500724     0.08000
C1124       C  0.43761013  0.58244264  0.89591910     0.04400
C1125       C  0.47387038  0.61723215  0.89680643    -0.20300
C1126       C  0.49848664  0.63136129  0.88085801    -0.12600
C1127       C  0.48657148  0.60953105  0.86366508     0.13100
C1128       C  0.45015641  0.57486731  0.86282673    -0.23000
C1129       C  0.41216566  0.56798770  0.91336477    -0.06100
H1130       H  0.48285768  0.63373591  0.90997841     0.14600
C1131       C  0.51245653  0.62151484  0.84635897    -0.16300
H1132       H  0.44076231  0.55798162  0.84976853     0.08900
H1133       H  0.33932697  0.40446098  0.89989919     0.06800
H1134       H  0.38373413  0.42243665  0.88677444     0.08000
H1135       H  0.33787937  0.39490867  0.87453413     0.07000
H1136       H  0.37265337  0.57360280  0.85368729     0.01900
H1137       H  0.36477807  0.58207917  0.87814314     0.02400
H1138       H  0.32375291  0.55489650  0.86250302     0.05900
H1139       H  0.42588137  0.58794197  0.92567508     0.04900
H1140       H  0.40722388  0.53860883  0.91734389    -0.00900
H1141       H  0.38350427  0.56589513  0.91046966     0.00600
H1142       H  0.49966460  0.59921712  0.83487054     0.04300
H1143       H  0.51611733  0.64920394  0.84054198     0.06200
H1144       H  0.54146104  0.62521759  0.85014210     0.07100
C1145       C  0.91444106  0.09713238  0.88899987    -0.22600
C1146       C  0.91795724  0.06503180  0.89481783     0.09400
C1147       C  0.95505404  0.07086831  0.89999229     0.09800
C1148       C  0.98792469  0.10861346  0.89895314    -0.17500
C1149       C  0.98489800  0.14089790  0.89262719    -0.27900
C1150       C  0.94735022  0.13498824  0.88779877     0.18100
C1151       C  0.88278716  0.02523049  0.89433256     0.12100
C1152       C  0.95996408  0.03721840  0.90658268    -0.12200
H1153       H  0.01638851  0.11270530  0.90273979     0.12400
C1154       C  0.94136242  0.16826463  0.88171657    -0.23100
H1155       H  0.88577591  0.09233724  0.88507837     0.08000
C1156       C  0.85431889  0.01155586  0.90885812     0.04400
C1157       C  0.82131612  0.97378145  0.90741825    -0.20300
C1158       C  0.81603944  0.94961901  0.89168743    -0.12600
C1159       C  0.84519125  0.96304360  0.87742695     0.13100
C1160       C  0.87793306  0.00078457  0.87885816    -0.23000
C1161       C  0.85878299  0.03684853  0.92579813    -0.06100
H1162       H  0.79908343  0.96338823  0.91838673     0.14600
C1163       C  0.84339862  0.93802277  0.86081003    -0.16300
H1164       H  0.90008004  0.01119280  0.86783953     0.08900
H1165       H  0.90984678  0.15862021  0.87983434     0.06800
H1166       H  0.95595892  0.18011473  0.86788197     0.08000
H1167       H  0.95340966  0.19171647  0.89267292     0.07000
H1168       H  0.95099076  0.01499233  0.89511673     0.01900
H1169       H  0.94153842  0.02350974  0.91931748     0.02400
H1170       H  0.99084243  0.04694519  0.91040332     0.05900
H1171       H  0.83418348  0.02155845  0.93596404     0.04900
H1172       H  0.85943459  0.06401384  0.92105454    -0.00900
H1173       H  0.88648050  0.04475358  0.93338649     0.00600
H1174       H  0.84184076  0.95187271  0.84735292     0.04300
H1175       H  0.81803536  0.90787833  0.86138762     0.06200
H1176       H  0.87023345  0.93553539  0.86065438     0.07100
C1177       C  0.36972714  0.79050287  0.90209844    -0.22600
C1178       C  0.39155979  0.79994367  0.88527846     0.09400
C1179       C  0.37890335  0.81169041  0.86913440     0.09800
C1180       C  0.34470421  0.81409372  0.87022601    -0.17500
C1181       C  0.32278535  0.80488540  0.88707204    -0.27900
C1182       C  0.33518728  0.79239626  0.90319880     0.18100
C1183       C  0.42837625  0.79862360  0.88508934     0.12100
C1184       C  0.40157288  0.82178698  0.85080695    -0.12200
H1185       H  0.33505864  0.82339642  0.85785316     0.12400
C1186       C  0.31228774  0.77926992  0.92148484    -0.23100
H1187       H  0.37957520  0.78124070  0.91441337     0.08000
C1188       C  0.46389222  0.83112403  0.89103385     0.04400
C1189       C  0.49822335  0.82883958  0.89071367    -0.20300
C1190       C  0.49789438  0.79455309  0.88485772    -0.12600
C1191       C  0.46177362  0.76145653  0.87934035     0.13100
C1192       C  0.42764510  0.76432111  0.87918809    -0.23000
C1193       C  0.46544804  0.86818149  0.89775734    -0.06100
H1194       H  0.52561684  0.85412475  0.89504926     0.14600
C1195       C  0.45729774  0.72211750  0.87448915    -0.16300
H1196       H  0.40000625  0.73924544  0.87491707     0.08900
H1197       H  0.33005188  0.79904142  0.93323600     0.06800
H1198       H  0.30565807  0.74905849  0.92486108     0.08000
H1199       H  0.28394657  0.77858462  0.92088535     0.07000
H1200       H  0.40298891  0.79595199  0.84557587     0.01900
H1201       H  0.43175979  0.84645449  0.85317280     0.02400
H1202       H  0.38768737  0.83061697  0.83958642     0.05900
H1203       H  0.49563329  0.89098991  0.90176480     0.04900
H1204       H  0.44641804  0.86183010  0.91041112    -0.00900
H1205       H  0.45510085  0.88017051  0.88629940     0.00600
H1206       H  0.43349143  0.69905445  0.88322037     0.04300
H1207       H  0.48381044  0.72015131  0.87741950     0.06200
H1208       H  0.44939737  0.71546436  0.85924558     0.07100
C1209       C  0.86894243  0.78191615  0.90489999    -0.22600
C1210       C  0.89072784  0.79265269  0.88802952     0.09400
C1211       C  0.87568092  0.80105735  0.87164449     0.09800
C1212       C  0.83835829  0.79699446  0.87226355    -0.17500
C1213       C  0.81643646  0.78633833  0.88910386    -0.27900
C1214       C  0.83199454  0.77894599  0.90573708     0.18100
C1215       C  0.92935557  0.79507586  0.88770263     0.12100
C1216       C  0.89964959  0.81578486  0.85374933    -0.12200
H1217       H  0.82669194  0.80341844  0.85967254     0.12400
C1218       C  0.81036872  0.76703108  0.92441256    -0.23100
H1219       H  0.88083615  0.77571691  0.91747445     0.08000
C1220       C  0.96269505  0.82708345  0.89577287     0.04400
C1221       C  0.99895151  0.82875554  0.89444779    -0.20300
C1222       C  0.00299093  0.79965859  0.88482508    -0.12600
C1223       C  0.96918820  0.76746755  0.87667040     0.13100
C1224       C  0.93282229  0.76557151  0.87839004    -0.23000
C1225       C  0.96016370  0.85993904  0.90535359    -0.06100
H1226       H  0.02443028  0.85335523  0.90075461     0.14600
C1227       C  0.97060565  0.73452367  0.86647459    -0.16300
H1228       H  0.90687020  0.74117216  0.87219812     0.08900
H1229       H  0.82696070  0.78995155  0.93526389     0.06800
H1230       H  0.80780296  0.73904555  0.92925516     0.08000
H1231       H  0.78029663  0.76234276  0.92357355     0.07000
H1232       H  0.90620950  0.79342160  0.84809630     0.01900
H1233       H  0.92755123  0.84311214  0.85690133     0.02400
H1234       H  0.88402883  0.82242156  0.84250746     0.05900
H1235       H  0.98927326  0.88339800  0.91035608     0.04900
H1236       H  0.94047808  0.84854797  0.91785049    -0.00900
H1237       H  0.94848458  0.87315256  0.89520040     0.00600
H1238       H  0.94094298  0.71083048  0.86226970     0.04300
H1239       H  0.98359848  0.72143527  0.87590210     0.06200
H1240       H  0.98808244  0.74558387  0.85326025     0.07100
C1241       C  0.77928171  0.69604978  0.00948554    -0.22600
C1242       C  0.74531253  0.69903804  0.00995484     0.09400
C1243       C  0.72327991  0.68996726  0.02686260     0.09800
C1244       C  0.73575457  0.67818624  0.04296575    -0.17500
C1245       C  0.76988726  0.67548839  0.04261612    -0.27900
C1246       C  0.79176319  0.68410912  0.02558268     0.18100
C1247       C  0.73284337  0.71112547  0.99253215     0.12100
C1248       C  0.68682532  0.69312569  0.02795427    -0.12200
H1249       H  0.71907482  0.67157625  0.05602876     0.12400
C1250       C  0.82741412  0.67969542  0.02365406    -0.23100
H1251       H  0.79589419  0.70264220  0.99640142     0.08000
C1252       C  0.74779734  0.75089142  0.98801485     0.04400
C1253       C  0.73393938  0.76087593  0.97176946    -0.20300
C1254       C  0.70553604  0.73202957  0.95971360    -0.12600
C1255       C  0.69129165  0.69195004  0.96415066     0.13100
C1256       C  0.70501201  0.68217785  0.98055598    -0.23000
C1257       C  0.77831502  0.78275852  0.00040322    -0.06100
H1258       H  0.74533242  0.79156691  0.96855178     0.14600
C1259       C  0.66273159  0.65914422  0.95149442    -0.16300
H1260       H  0.69399690  0.65167969  0.98411170     0.08900
H1261       H  0.85335267  0.70856848  0.02035515     0.06800
H1262       H  0.82279688  0.65904812  0.01186603     0.08000
H1263       H  0.83372364  0.66796719  0.03664263     0.07000
H1264       H  0.66497113  0.67302883  0.01744007     0.01900
H1265       H  0.69414623  0.72364347  0.02483043     0.02400
H1266       H  0.67326129  0.68526180  0.04227843     0.05900
H1267       H  0.78669256  0.81237447  0.99497456     0.04900
H1268       H  0.80503838  0.78010727  0.00084297    -0.00900
H1269       H  0.76683665  0.78012610  0.01505333     0.00600
H1270       H  0.65704533  0.63010690  0.95660328     0.04300
H1271       H  0.67475508  0.66327354  0.93687772     0.06200
H1272       H  0.63422317  0.65836038  0.95124916     0.07100
C1273       C  0.75859557  0.07081783  0.27567473    -0.22600
C1274       C  0.76895137  0.10501525  0.26536573     0.09400
C1275       C  0.78378052  0.14094054  0.27508139     0.09800
C1276       C  0.78972537  0.14218527  0.29481652    -0.17500
C1277       C  0.78187112  0.10839798  0.30516301    -0.27900
C1278       C  0.76497248  0.07193353  0.29540819     0.18100
C1279       C  0.76927260  0.10350068  0.24427088     0.12100
C1280       C  0.79494140  0.17825103  0.26446217    -0.12200
H1281       H  0.80245673  0.17023775  0.30199965     0.12400
C1282       C  0.75359679  0.03398702  0.30547445    -0.23100
H1283       H  0.74714116  0.04333314  0.26804309     0.08000
C1284       C  0.80078591  0.10369408  0.23472918     0.04400
C1285       C  0.80127946  0.10347650  0.21483190    -0.20300
C1286       C  0.77163303  0.10424760  0.20407321    -0.12600
C1287       C  0.73994889  0.10407590  0.21361549     0.13100
C1288       C  0.73901807  0.10339888  0.23366787    -0.23000
C1289       C  0.83463462  0.10541485  0.24556659    -0.06100
H1290       H  0.82581041  0.10403628  0.20759293     0.14600
C1291       C  0.70680374  0.10371506  0.20278959    -0.16300
H1292       H  0.71494947  0.10332210  0.24112136     0.08900
H1293       H  0.78008302  0.03378496  0.31060103     0.06800
H1294       H  0.73775862  0.00834928  0.29587945     0.08000
H1295       H  0.73398879  0.03010994  0.31759708     0.07000
H1296       H  0.76888478  0.17559452  0.25701215     0.01900
H1297       H  0.81799002  0.18386250  0.25385620     0.02400
H1298       H  0.80641535  0.20391254  0.27415654     0.05900
H1299       H  0.85731596  0.10634041  0.23589565     0.04900
H1300       H  0.82409445  0.07918044  0.25474307    -0.00900
H1301       H  0.84861241  0.13215870  0.25457004     0.00600
H1302       H  0.68360015  0.10157561  0.21247981     0.04300
H1303       H  0.69338242  0.07816086  0.19300898     0.06200
H1304       H  0.71777873  0.13112164  0.19448037     0.07100
C1305       C  0.20390470  0.34306416  0.77205619    -0.22600
C1306       C  0.23564407  0.33954072  0.76576001     0.09400
C1307       C  0.25946139  0.33461652  0.77920350     0.09800
C1308       C  0.24984113  0.33165643  0.79867050    -0.17500
C1309       C  0.21718555  0.33398581  0.80492440    -0.27900
C1310       C  0.19399613  0.33984180  0.79135835     0.18100
C1311       C  0.24013053  0.33682591  0.74491819     0.12100
C1312       C  0.29474725  0.33232022  0.77294543    -0.12200
H1313       H  0.26762917  0.32720271  0.80902121     0.12400
C1314       C  0.15705798  0.34030860  0.79640145    -0.23100
H1315       H  0.18543927  0.34640224  0.76166427     0.08000
C1316       C  0.21966195  0.30043345  0.73549831     0.08000
C1317       C  0.21987712  0.29921078  0.71557694    -0.20300
C1318       C  0.23970290  0.33355257  0.70461537    -0.12600
C1319       C  0.26213324  0.36991579  0.71416497     0.13100
C1320       C  0.26151481  0.37107430  0.73419134    -0.23000
C1321       C  0.19614778  0.26292369  0.74646198    -0.06100
H1322       H  0.20257835  0.27122140  0.70852271     0.14600
C1323       C  0.28761864  0.40787097  0.70389490    -0.16300
H1324       H  0.27747278  0.39897353  0.74149147     0.08900
H1325       H  0.13224473  0.31766240  0.78793564     0.06800
H1326       H  0.16073608  0.36945095  0.79298928     0.08000
H1327       H  0.14866682  0.33375210  0.81150460     0.07000
H1328       H  0.31537525  0.35963717  0.76534974     0.01900
H1329       H  0.28569669  0.30699720  0.76324906     0.02400
H1330       H  0.31045258  0.32879781  0.78522377     0.05900
H1331       H  0.18190525  0.23702296  0.73691117     0.04900
H1332       H  0.17285580  0.26425260  0.75470370    -0.00900
H1333       H  0.21553554  0.25859618  0.75639403     0.00600
H1334       H  0.27584838  0.42796983  0.70596921     0.04300
H1335       H  0.29018978  0.40395123  0.68848775     0.06200
H1336       H  0.31776974  0.42187296  0.70980996     0.07100
C1337       C  0.05791183  0.21919635  0.51406666    -0.22600
C1338       C  0.03129790  0.23251852  0.51155137     0.09400
C1339       C  0.02953217  0.25785564  0.52516013     0.09800
C1340       C  0.05423600  0.26902228  0.54115755    -0.17500
C1341       C  0.08071591  0.25535143  0.54393880    -0.27900
C1342       C  0.08275050  0.23033645  0.53001553     0.18100
C1343       C  0.00575203  0.21984753  0.49444651     0.12100
C1344       C  0.00177905  0.27333664  0.52266134    -0.12200
H1345       H  0.05247728  0.28817331  0.55168362     0.12400
C1346       C  0.11192265  0.21637668  0.53138909    -0.23100
H1347       H  0.05928804  0.20003818  0.50341289     0.08000
C1348       C  0.01961009  0.23816172  0.47667464     0.04400
C1349       C  0.99423197  0.22543954  0.46093662    -0.20300
C1350       C  0.95538738  0.19480248  0.46257380    -0.12600
C1351       C  0.94133556  0.17683277  0.48044084     0.13100
C1352       C  0.96684352  0.18941287  0.49613384    -0.23000
C1353       C  0.06100355  0.27137688  0.47439828    -0.06100
H1354       H  0.00479926  0.23927871  0.44722916     0.14600
C1355       C  0.89946315  0.14529210  0.48358921    -0.16300
H1356       H  0.95619698  0.17568451  0.50985580     0.08900
H1357       H  0.11146130  0.19983496  0.51851108     0.06800
H1358       H  0.10494356  0.19645655  0.54371076     0.08000
H1359       H  0.14192489  0.24192028  0.53286711     0.07000
H1360       H  0.97113887  0.24863654  0.52227898     0.01900
H1361       H  0.00831910  0.28995347  0.50914062     0.02400
H1362       H  0.00434502  0.29320730  0.53446693     0.05900
H1363       H  0.06700229  0.28258887  0.45958789     0.04900
H1364       H  0.08191671  0.26128552  0.47803943    -0.00900
H1365       H  0.06610422  0.29589956  0.48397160     0.00600
H1366       H  0.89862474  0.11830855  0.48879339     0.04300
H1367       H  0.88133192  0.13785720  0.47054557     0.06200
H1368       H  0.88598415  0.15532377  0.49444796     0.07100
C1369       C  0.10835411  0.70598854  0.72904142    -0.22600
C1370       C  0.14177990  0.72595139  0.74053746     0.09400
C1371       C  0.17894585  0.74661656  0.73190381     0.09800
C1372       C  0.18161731  0.74918501  0.71201565    -0.17500
C1373       C  0.14803000  0.73160696  0.70041873    -0.27900
C1374       C  0.11101771  0.70806524  0.70907917     0.18100
C1375       C  0.13728679  0.72886225  0.76137803     0.12100
C1376       C  0.21572984  0.76755081  0.74369225    -0.12200
H1377       H  0.21008617  0.76701363  0.70555767     0.12400
C1378       C  0.07394520  0.68433767  0.69781522    -0.23100
H1379       H  0.07988310  0.68942687  0.73570507     0.08000
C1380       C  0.12649189  0.75546510  0.76867594     0.04400
C1381       C  0.12688531  0.76108700  0.78838622    -0.20300
C1382       C  0.13877427  0.74153110  0.80111535    -0.12600
C1383       C  0.14804081  0.71357555  0.79382288     0.13100
C1384       C  0.14706140  0.70755404  0.77402149    -0.23000
C1385       C  0.11626062  0.77932574  0.75560555    -0.06100
H1386       H  0.11959802  0.78238471  0.79382361     0.14600
C1387       C  0.15827876  0.68952654  0.80674998    -0.16300
H1388       H  0.15501144  0.68694053  0.76831308     0.08900
H1389       H  0.05354827  0.69555526  0.70042143     0.06800
H1390       H  0.05968967  0.65325213  0.70239378     0.08000
H1391       H  0.07927110  0.68472581  0.68235293     0.07000
H1392       H  0.21907066  0.74602950  0.75247972     0.01900
H1393       H  0.21417115  0.78929955  0.75313995     0.02400
H1394       H  0.24225086  0.78331808  0.73468954     0.05900
H1395       H  0.10921644  0.79928890  0.76362719     0.04900
H1396       H  0.09032311  0.75961281  0.74685796    -0.00900
H1397       H  0.14138812  0.79743590  0.74610823     0.00600
H1398       H  0.16176038  0.66720910  0.79870102     0.04300
H1399       H  0.13462201  0.67395569  0.81735093     0.06200
H1400       H  0.18635698  0.70860090  0.81417935     0.07100
C1401       C  0.16634589  0.50930340  0.63870796    -0.22600
C1402       C  0.17924127  0.53413007  0.62290401     0.09400
C1403       C  0.19098596  0.52264304  0.60632751     0.09800
C1404       C  0.19070638  0.48692580  0.60615847    -0.17500
C1405       C  0.17808353  0.46204038  0.62203190    -0.27900
C1406       C  0.16464289  0.47292063  0.63835376     0.18100
C1407       C  0.17981563  0.57189558  0.62391494     0.12100
C1408       C  0.20314319  0.54775824  0.58874120    -0.12200
H1409       H  0.20057589  0.47844407  0.59359162     0.12400
C1410       C  0.14637887  0.44637294  0.65523253    -0.23100
H1411       H  0.15659778  0.51799076  0.65125375     0.08000
C1412       C  0.14541788  0.57397552  0.62151748     0.04400
C1413       C  0.14785730  0.61068739  0.62164928    -0.20300
C1414       C  0.18388197  0.64540911  0.62410407    -0.12600
C1415       C  0.21844067  0.64317183  0.62657698     0.13100
C1416       C  0.21570217  0.60629320  0.62674866    -0.23000
C1417       C  0.10629871  0.53755739  0.61849773    -0.06100
H1418       H  0.12143264  0.61233913  0.61973193     0.14600
C1419       C  0.25892972  0.67857296  0.62801403    -0.16300
H1420       H  0.24202862  0.60438261  0.62849215     0.08900
H1421       H  0.11686855  0.44250242  0.65781858     0.06800
H1422       H  0.16478898  0.45982594  0.66804045     0.08000
H1423       H  0.14223547  0.41670589  0.65319912     0.07000
H1424       H  0.22913691  0.57672302  0.59186195     0.01900
H1425       H  0.17870683  0.55200069  0.58389407     0.02400
H1426       H  0.21079069  0.53409912  0.57693019     0.05900
H1427       H  0.08244279  0.54450107  0.61666599     0.04900
H1428       H  0.09902941  0.51788812  0.63096028    -0.00900
H1429       H  0.10732349  0.52197101  0.60555279     0.00600
H1430       H  0.27167801  0.67903915  0.64216240     0.04300
H1431       H  0.25970433  0.70671396  0.62588446     0.06200
H1432       H  0.27793342  0.67681592  0.61687762     0.07100
C1433       C  0.16106771  0.00906644  0.63298756    -0.22600
C1434       C  0.17318293  0.03331092  0.61697708     0.09400
C1435       C  0.18740139  0.02294711  0.60090978     0.09800
C1436       C  0.18922294  0.98829610  0.60125809    -0.17500
C1437       C  0.17783759  0.96430692  0.61744552    -0.27900
C1438       C  0.16284947  0.97446475  0.63341500     0.18100
C1439       C  0.17229141  0.07030541  0.61778402     0.12100
C1440       C  0.20129905  0.04881172  0.58359570    -0.12200
H1441       H  0.20056421  0.98040638  0.58903658     0.12400
C1442       C  0.14737514  0.94919769  0.65091133    -0.23100
H1443       H  0.15000903  0.01719640  0.64524097     0.08000
C1444       C  0.13907083  0.07233144  0.61211108     0.04400
C1445       C  0.13975271  0.10819520  0.61342590    -0.20300
C1446       C  0.17262101  0.14186099  0.62068580    -0.12600
C1447       C  0.20589824  0.13950138  0.62644786     0.13100
C1448       C  0.20518581  0.10369260  0.62489041    -0.23000
C1449       C  0.10284660  0.03656029  0.60490398    -0.06100
H1450       H  0.11424913  0.10981018  0.60901198     0.14600
C1451       C  0.24284467  0.17465285  0.63359256    -0.16300
H1452       H  0.23047053  0.10160760  0.62923825     0.08900
H1453       H  0.11695406  0.94258485  0.65368118     0.06800
H1454       H  0.16587962  0.96517211  0.66335191     0.08000
H1455       H  0.14637587  0.92074079  0.64956920     0.07000
H1456       H  0.22577999  0.07821682  0.58754812     0.01900
H1457       H  0.17695614  0.05190772  0.57758763     0.02400
H1458       H  0.21188688  0.03655862  0.57236388     0.05900
H1459       H  0.07954022  0.04326677  0.60096753     0.04900
H1460       H  0.09113862  0.01371626  0.61611623    -0.00900
H1461       H  0.11000398  0.02482647  0.59213471     0.00600
H1462       H  0.23720024  0.18482112  0.64730771     0.04300
H1463       H  0.25358782  0.19850447  0.62290659     0.06200
H1464       H  0.26655468  0.16775732  0.63612409     0.07100
C1465       C  0.40243784  0.21472181  0.23146749    -0.22600
C1466       C  0.37038767  0.19801948  0.24383514     0.09400
C1467       C  0.33212661  0.17849093  0.23618130     0.09800
C1468       C  0.32685969  0.17479379  0.21631877    -0.17500
C1469       C  0.35899355  0.19028566  0.20381124    -0.27900
C1470       C  0.39735367  0.21195414  0.21162052     0.18100
C1471       C  0.37746908  0.19988641  0.26473193     0.12100
C1472       C  0.29688700  0.16042229  0.24902306    -0.12200
H1473       H  0.29745165  0.15839774  0.21057062     0.12400
C1474       C  0.43370804  0.23390669  0.19967071    -0.23100
H1475       H  0.43177377  0.23035179  0.23737676     0.08000
C1476       C  0.38765479  0.17413016  0.27364540     0.04400
C1477       C  0.39070147  0.17432906  0.29353002    -0.20300
C1478       C  0.38377839  0.19960894  0.30482300    -0.12600
C1479       C  0.37602984  0.22716523  0.29584285     0.13100
C1480       C  0.37266528  0.22673549  0.27589897    -0.23000
C1481       C  0.39393146  0.14539258  0.26223815    -0.06100
H1482       H  0.39653890  0.15312672  0.30036486     0.14600
C1483       C  0.37188437  0.25771711  0.30681070    -0.16300
H1484       H  0.36580558  0.24717928  0.26901978     0.08900
H1485       H  0.45247579  0.22049049  0.20134859     0.06800
H1486       H  0.45041033  0.26483415  0.20453980     0.08000
H1487       H  0.42751883  0.23494767  0.18440720     0.07000
H1488       H  0.29654668  0.18347482  0.25795310     0.01900
H1489       H  0.29800128  0.13831504  0.25837030     0.02400
H1490       H  0.26910306  0.14567214  0.24080439     0.05900
H1491       H  0.40053315  0.12658704  0.27148823     0.04900
H1492       H  0.41896402  0.16144823  0.25240572    -0.00900
H1493       H  0.36717190  0.12607787  0.25388702     0.00600
H1494       H  0.39324491  0.28725449  0.30135197     0.04300
H1495       H  0.37781753  0.25750266  0.32219740     0.06200
H1496       H  0.34182879  0.25288950  0.30495116     0.07100
C1497       C  0.27210678  0.92826609  0.51337268    -0.22600
C1498       C  0.26489837  0.95957788  0.51226997     0.09400
C1499       C  0.24462596  0.96577172  0.52712597     0.09800
C1500       C  0.23244387  0.94072009  0.54295640    -0.17500
C1501       C  0.24027852  0.90968117  0.54435407    -0.27900
C1502       C  0.26009729  0.90320231  0.52920972     0.18100
C1503       C  0.27789515  0.98488027  0.49514999     0.12100
C1504       C  0.23575937  0.99874257  0.52620432    -0.12200
H1505       H  0.21717608  0.94575488  0.55444008     0.12400
C1506       C  0.26742959  0.86915808  0.52924782    -0.23100
H1507       H  0.28718486  0.92343456  0.50172934     0.08000
C1508       C  0.31478115  0.01938150  0.49435972     0.04400
C1509       C  0.32544772  0.04256912  0.47788638    -0.20300
C1510       C  0.30019739  0.03186449  0.46212644    -0.12600
C1511       C  0.26392685  0.99619224  0.46265157     0.13100
C1512       C  0.25300121  0.97363025  0.47931542    -0.23000
C1513       C  0.34286598  0.03160448  0.51086683    -0.06100
H1514       H  0.35351088  0.06942560  0.47736674     0.14600
C1515       C  0.23684692  0.97984345  0.44573385    -0.16300
H1516       H  0.22511156  0.94656221  0.47984191     0.08900
H1517       H  0.28812311  0.87271401  0.54080417     0.06800
H1518       H  0.28056998  0.86700200  0.51567092     0.08000
H1519       H  0.23935822  0.84135116  0.53121410     0.07000
H1520       H  0.21758016  0.99512237  0.51346942     0.01900
H1521       H  0.26340742  0.02725628  0.52529873     0.02400
H1522       H  0.21954396  0.99942736  0.53895809     0.05900
H1523       H  0.37052589  0.05924043  0.50786997     0.04900
H1524       H  0.35023743  0.00839784  0.51387158    -0.00900
H1525       H  0.32938220  0.03629221  0.52369333     0.00600
H1526       H  0.23041679  0.94947426  0.44288313     0.04300
H1527       H  0.24942835  0.99655436  0.43249535     0.06200
H1528       H  0.20893113  0.97919246  0.44881777     0.07100
C1529       C  0.14110055  0.14474560  0.37467874    -0.22600
C1530       C  0.11750312  0.12889163  0.39069041     0.09400
C1531       C  0.12809142  0.11081000  0.40488687     0.09800
C1532       C  0.16328752  0.11053854  0.40308718    -0.17500
C1533       C  0.18831451  0.12794034  0.38739269    -0.27900
C1534       C  0.17637099  0.14468969  0.37273259     0.18100
C1535       C  0.08188127  0.13195933  0.39211120     0.12100
C1536       C  0.10283270  0.09271395  0.42215404    -0.12200
H1537       H  0.17141137  0.09707650  0.41427054     0.12400
C1538       C  0.19985096  0.16266596  0.35492138    -0.23100
H1539       H  0.13189394  0.15774025  0.36370262     0.08000
C1540       C  0.08413539  0.16835502  0.39547041     0.04400
C1541       C  0.04974370  0.17047306  0.39511673    -0.20300
C1542       C  0.01341264  0.13693339  0.39180591    -0.12600
C1543       C  0.01107489  0.10037176  0.38886459     0.13100
C1544       C  0.04552780  0.09839030  0.38889421    -0.23000
C1545       C  0.12269528  0.20479170  0.39956546    -0.06100
H1546       H  0.05111836  0.19831823  0.39747310     0.14600
C1547       C  0.97252961  0.06381972  0.38495534    -0.16300
H1548       H  0.04425957  0.07073254  0.38608957     0.08900
H1549       H  0.18512265  0.17345270  0.34518248     0.06800
H1550       H  0.20346873  0.14034560  0.34699640     0.08000
H1551       H  0.22877890  0.18822095  0.35857610     0.07000
H1552       H  0.07362562  0.06850283  0.41779317     0.01900
H1553       H  0.09926205  0.11523619  0.42993594     0.02400
H1554       H  0.11589111  0.08042599  0.43205368     0.05900
H1555       H  0.11885384  0.23031954  0.40259979     0.04900
H1556       H  0.14247506  0.21229500  0.38715113    -0.00900
H1557       H  0.13668951  0.19985803  0.41215493     0.00600
H1558       H  0.95848781  0.06853685  0.37234203     0.04300
H1559       H  0.95292715  0.05668115  0.39742091     0.06200
H1560       H  0.97628988  0.03818677  0.38206969     0.07100
C1561       C  0.64816153  0.15645848  0.40020991    -0.22600
C1562       C  0.62234608  0.14026438  0.38482632     0.09400
C1563       C  0.63398491  0.12747976  0.36863572     0.09800
C1564       C  0.67093789  0.13021810  0.36842577    -0.17500
C1565       C  0.69636027  0.14545072  0.38405719    -0.27900
C1566       C  0.68523913  0.15974904  0.39995194     0.18100
C1567       C  0.58406022  0.13883834  0.38574698     0.12100
C1568       C  0.60709527  0.11029987  0.35178504    -0.12200
H1569       H  0.67956761  0.11940618  0.35626098     0.12400
C1570       C  0.71215553  0.17990948  0.41657728    -0.23100
H1571       H  0.63949089  0.16714854  0.41241560     0.08000
C1572       C  0.55177835  0.10884277  0.39551410     0.04400
C1573       C  0.51666812  0.10987982  0.39661180    -0.20300
C1574       C  0.51317476  0.14049394  0.38829853    -0.12600
C1575       C  0.54642440  0.17138718  0.37915103     0.13100
C1576       C  0.58095480  0.16954554  0.37763955    -0.23000
C1577       C  0.55435376  0.07557356  0.40454744    -0.06100
H1578       H  0.49162863  0.08628342  0.40372886     0.14600
C1579       C  0.54742830  0.20772969  0.37164277    -0.16300
H1580       H  0.60622374  0.19297680  0.37055380     0.08900
H1581       H  0.69909019  0.16283552  0.42974589     0.06800
H1582       H  0.71598087  0.20962453  0.41836569     0.08000
H1583       H  0.74174280  0.18370867  0.41474235     0.07000
H1584       H  0.60029887  0.13226256  0.34578742     0.01900
H1585       H  0.57945755  0.08403270  0.35627028     0.02400
H1586       H  0.62052780  0.10139190  0.34038619     0.05900
H1587       H  0.52646068  0.05437622  0.41154273     0.04900
H1588       H  0.57784197  0.08715668  0.41548127    -0.00900
H1589       H  0.56112550  0.05966505  0.39352847     0.00600
H1590       H  0.57623521  0.23396258  0.37484212     0.04300
H1591       H  0.52533590  0.21324368  0.37845961     0.06200
H1592       H  0.54308275  0.20531958  0.35600063     0.07100
C1593       C  0.82725323  0.59536898  0.23628674    -0.22600
C1594       C  0.86119609  0.59574768  0.24251540     0.09400
C1595       C  0.88744072  0.59528781  0.22906874     0.09800
C1596       C  0.88035627  0.59694955  0.20959940    -0.17500
C1597       C  0.84722631  0.59829260  0.20336072    -0.27900
C1598       C  0.81982795  0.59662543  0.21687609     0.18100
C1599       C  0.87012334  0.60031015  0.26314435     0.12100
C1600       C  0.92316441  0.59376813  0.23532012    -0.12200
H1601       H  0.90100360  0.59775811  0.19919892     0.12400
C1602       C  0.78347811  0.59802825  0.21153195    -0.23100
H1603       H  0.80712061  0.59559889  0.24670520     0.08000
C1604       C  0.88844400  0.63767614  0.27171635     0.04400
C1605       C  0.89267868  0.64080207  0.29155495    -0.20300
C1606       C  0.87853957  0.60733976  0.30311741    -0.12600
C1607       C  0.86271854  0.57003717  0.29429360     0.13100
C1608       C  0.85819712  0.56701677  0.27443007    -0.23000
C1609       C  0.90224703  0.67416414  0.25993273    -0.06100
H1610       H  0.90490355  0.66945807  0.29810391     0.14600
C1611       C  0.85063328  0.53286592  0.30524041    -0.16300
H1612       H  0.84482899  0.53842894  0.26771157     0.08900
H1613       H  0.78432587  0.62384185  0.21836330     0.06800
H1614       H  0.75720656  0.57107588  0.21666208     0.08000
H1615       H  0.78021713  0.60042899  0.19604883     0.07000
H1616       H  0.91411727  0.56680542  0.24377098     0.01900
H1617       H  0.94218543  0.61977256  0.24419330     0.02400
H1618       H  0.94055227  0.59339660  0.22299794     0.05900
H1619       H  0.91591687  0.70104517  0.26884443     0.04900
H1620       H  0.87710029  0.67304435  0.25224466    -0.00900
H1621       H  0.92429207  0.67641327  0.24945021     0.00600
H1622       H  0.81840253  0.51347850  0.30427584     0.04300
H1623       H  0.85951710  0.53814793  0.32038281     0.06200
H1624       H  0.86499011  0.51737126  0.29899567     0.07100
C1625       C  0.88025560  0.86983268  0.39838854    -0.22600
C1626       C  0.84889330  0.87304562  0.39128794     0.09400
C1627       C  0.81532842  0.83974439  0.38422407     0.09800
C1628       C  0.81377447  0.80349303  0.38452218    -0.17500
C1629       C  0.84531334  0.79994254  0.39147383    -0.27900
C1630       C  0.87922065  0.83380374  0.39844772     0.18100
C1631       C  0.85258393  0.91206173  0.39063272     0.12100
C1632       C  0.78133681  0.84260814  0.37628867    -0.12200
H1633       H  0.78783868  0.77783368  0.37916396     0.12400
C1634       C  0.91526656  0.83306874  0.40511213    -0.23100
H1635       H  0.90601378  0.89594134  0.40355012     0.08000
C1636       C  0.84416069  0.92811322  0.40659009     0.04400
C1637       C  0.84757997  0.96513867  0.40509278    -0.20300
C1638       C  0.85824361  0.98585238  0.38784855    -0.12600
C1639       C  0.86662300  0.96947316  0.37184147     0.13100
C1640       C  0.86430151  0.93298216  0.37357988    -0.23000
C1641       C  0.83096812  0.90583447  0.42501907    -0.06100
H1642       H  0.84085916  0.97752434  0.41729645     0.14600
C1643       C  0.87813484  0.99009512  0.35293634    -0.16300
H1644       H  0.87083395  0.92019881  0.36147019     0.08900
H1645       H  0.90862796  0.81484839  0.41808250     0.06800
H1646       H  0.93951853  0.86280298  0.40880589     0.08000
H1647       H  0.92594809  0.82137752  0.39366175     0.07000
H1648       H  0.79110540  0.86266811  0.36388737     0.01900
H1649       H  0.76963886  0.85407544  0.38735504     0.02400
H1650       H  0.75720506  0.81365906  0.37150614     0.05900
H1651       H  0.82476627  0.92228022  0.43598282     0.04900
H1652       H  0.85414880  0.90036145  0.43058825    -0.00900
H1653       H  0.80379627  0.87735207  0.42262283     0.00600
H1654       H  0.90386830  0.01982549  0.35467355     0.04300
H1655       H  0.85329330  0.99222673  0.34689614     0.06200
H1656       H  0.88592174  0.97397942  0.34247870     0.07100
C1657       C  0.83954729  0.35055371  0.39857610    -0.22600
C1658       C  0.85117543  0.37158526  0.38148822     0.09400
C1659       C  0.86293633  0.35694015  0.36611005     0.09800
C1660       C  0.86309660  0.32162540  0.36822617    -0.17500
C1661       C  0.85183546  0.30062631  0.38538642    -0.27900
C1662       C  0.83900985  0.31485602  0.40063832     0.18100
C1663       C  0.85128846  0.40917509  0.38013152     0.12100
C1664       C  0.87513226  0.37851714  0.34747313    -0.12200
H1665       H  0.87239181  0.31046158  0.35645283     0.12400
C1666       C  0.82276443  0.29248097  0.41887295    -0.23100
H1667       H  0.83009094  0.36174188  0.41027607     0.08000
C1668       C  0.81685972  0.41049320  0.37624345     0.04400
C1669       C  0.81831630  0.44685872  0.37592450    -0.20300
C1670       C  0.85344549  0.48194759  0.37946974    -0.12600
C1671       C  0.88823231  0.48048379  0.38271832     0.13100
C1672       C  0.88657854  0.44408471  0.38306659    -0.23000
C1673       C  0.77866623  0.37351419  0.37244493    -0.06100
H1674       H  0.79166219  0.44778312  0.37341092     0.14600
C1675       C  0.92742314  0.51704377  0.38539499    -0.16300
H1676       H  0.91293441  0.44272605  0.38581158     0.08900
H1677       H  0.79316918  0.28841097  0.42142595     0.06800
H1678       H  0.84217710  0.30926191  0.43091655     0.08000
H1679       H  0.81942865  0.26291400  0.41861470     0.07000
H1680       H  0.90096729  0.40807732  0.34967802     0.01900
H1681       H  0.85067175  0.38155471  0.34155587     0.02400
H1682       H  0.88309713  0.36282227  0.33685579     0.05900
H1683       H  0.75455252  0.37968395  0.36961623     0.04900
H1684       H  0.77040563  0.35379422  0.38494070    -0.00900
H1685       H  0.78174092  0.35832254  0.35983250     0.00600
H1686       H  0.92781406  0.53172345  0.39888819     0.04300
H1687       H  0.93340593  0.53722588  0.37324655     0.06200
H1688       H  0.95162723  0.51037894  0.38617046     0.07100
C1689       C  0.06185690  0.85133937  0.37401475    -0.22600
C1690       C  0.07417647  0.87019068  0.39159462     0.09400
C1691       C  0.04947081  0.85486485  0.40751034     0.09800
C1692       C  0.01326321  0.82015920  0.40557429    -0.17500
C1693       C  0.00109188  0.80010144  0.38806414    -0.27900
C1694       C  0.02584550  0.81656798  0.37194982     0.18100
C1695       C  0.11318646  0.90605780  0.39282734     0.12100
C1696       C  0.06174816  0.87468793  0.42661416    -0.12200
H1697       H  0.99476112  0.80828988  0.41797862     0.12400
C1698       C  0.01479864  0.79867423  0.35236373    -0.23100
H1699       H  0.08088984  0.86392102  0.36181721     0.08000
C1700       C  0.14804086  0.90429766  0.39204964     0.04400
C1701       C  0.18429348  0.93923199  0.39207207    -0.20300
C1702       C  0.18648207  0.97588346  0.39259495    -0.12600
C1703       C  0.15135067  0.97750340  0.39333426     0.13100
C1704       C  0.11525196  0.94251032  0.39370275    -0.23000
C1705       C  0.14694915  0.86557306  0.39121386    -0.06100
H1706       H  0.21111785  0.93796878  0.39157260     0.14600
C1707       C  0.15026686  0.01518381  0.39265456    -0.16300
H1708       H  0.08835041  0.94366711  0.39397560     0.08900
H1709       H  0.03672994  0.81712191  0.34150825     0.06800
H1710       H  0.98630876  0.79562328  0.34807761     0.08000
H1711       H  0.01319826  0.76976868  0.35215285     0.07000
H1712       H  0.06570974  0.90456679  0.42577246     0.01900
H1713       H  0.08977531  0.87679315  0.43104924     0.02400
H1714       H  0.03953096  0.85825967  0.43772341     0.05900
H1715       H  0.17684511  0.86944268  0.39121955     0.04900
H1716       H  0.13191934  0.84963530  0.37803010    -0.00900
H1717       H  0.13098443  0.84756151  0.40374037     0.00600
H1718       H  0.13155750  0.01412155  0.38059385     0.04300
H1719       H  0.17926813  0.04136598  0.39045231     0.06200
H1720       H  0.13761752  0.01882233  0.40607065     0.07100
C1721       C  0.61381609  0.44177727  0.38715654    -0.22600
C1722       C  0.61448566  0.40839327  0.38088074     0.09400
C1723       C  0.64966807  0.41184911  0.37403824     0.09800
C1724       C  0.68385121  0.44858262  0.37433790    -0.17500
C1725       C  0.68358756  0.48196903  0.38116175    -0.27900
C1726       C  0.64770343  0.47873279  0.38697849     0.18100
C1727       C  0.57772362  0.37027107  0.38121294     0.12100
C1728       C  0.65144714  0.37668424  0.36693806    -0.12200
H1729       H  0.71118725  0.45102749  0.36968686     0.12400
C1730       C  0.64339954  0.51352429  0.39211859    -0.23100
H1731       H  0.58636021  0.43907724  0.39180382     0.08000
C1732       C  0.56093415  0.35103751  0.39845460     0.04400
C1733       C  0.52588749  0.31519175  0.39797659    -0.20300
C1734       C  0.50697369  0.29815978  0.38071945    -0.12600
C1735       C  0.52365966  0.31778333  0.36341120     0.13100
C1736       C  0.55903698  0.35349559  0.36395068    -0.23000
C1737       C  0.58014853  0.36790327  0.41734110    -0.06100
H1738       H  0.51322024  0.30017119  0.41123233     0.14600
C1739       C  0.50464660  0.30344402  0.34422182    -0.16300
H1740       H  0.57179172  0.36889771  0.35078646     0.08900
H1741       H  0.63649074  0.51251329  0.40747143     0.06800
H1742       H  0.61907040  0.51260720  0.38373091     0.08000
H1743       H  0.66972779  0.54189452  0.38879481     0.07000
H1744       H  0.63235350  0.36409565  0.35427386     0.01900
H1745       H  0.64156219  0.35416126  0.37827672     0.02400
H1746       H  0.68163313  0.38444994  0.36276234     0.05900
H1747       H  0.56356837  0.34827556  0.42933144     0.04900
H1748       H  0.58167969  0.39643617  0.41978589    -0.00900
H1749       H  0.61018996  0.37218604  0.41751218     0.00600
H1750       H  0.50129859  0.32681324  0.33718616     0.04300
H1751       H  0.47509696  0.27731516  0.34486543     0.06200
H1752       H  0.52356214  0.29659241  0.33521926     0.07100
C1753       C  0.60919615  0.82798419  0.73004715    -0.22600
C1754       C  0.64175553  0.83915969  0.74188722     0.09400
C1755       C  0.67872772  0.85162695  0.73366596     0.09800
C1756       C  0.68217421  0.85172462  0.71382056    -0.17500
C1757       C  0.64937450  0.83865625  0.70182755    -0.27900
C1758       C  0.61251350  0.82792133  0.71010490     0.18100
C1759       C  0.63624881  0.83379495  0.76278823     0.12100
C1760       C  0.71430718  0.86307421  0.74587772    -0.12200
H1761       H  0.71044007  0.85985360  0.70770280     0.12400
C1762       C  0.57624467  0.81681078  0.69851385    -0.23100
H1763       H  0.58085358  0.81860591  0.73642388     0.08000
C1764       C  0.64152474  0.86434783  0.77510083     0.04400
C1765       C  0.64021234  0.85859698  0.79490218    -0.20300
C1766       C  0.63417420  0.82312766  0.80266771    -0.12600
C1767       C  0.62902865  0.79258909  0.79017451     0.13100
C1768       C  0.62930300  0.79815010  0.77047072    -0.23000
C1769       C  0.64923096  0.90313544  0.76733921    -0.06100
H1770       H  0.64459839  0.88214213  0.80439028     0.14600
C1771       C  0.62600626  0.75477132  0.79678791    -0.16300
H1772       H  0.62611357  0.77507944  0.76094166     0.08900
H1773       H  0.56352664  0.83514754  0.70293399     0.06800
H1774       H  0.55428615  0.78555546  0.70102059     0.08000
H1775       H  0.58207893  0.82160701  0.68307957     0.07000
H1776       H  0.70944249  0.83797431  0.75492388     0.01900
H1777       H  0.71997004  0.88820286  0.75511250     0.02400
H1778       H  0.74088786  0.87177247  0.73717929     0.05900
H1779       H  0.65294289  0.92395453  0.77889151     0.04900
H1780       H  0.62427177  0.89870619  0.75827434    -0.00900
H1781       H  0.67636016  0.91656972  0.75868665     0.00600
H1782       H  0.59720888  0.72974807  0.79248629     0.04300
H1783       H  0.62943440  0.75331898  0.81228606     0.06200
H1784       H  0.64954053  0.75130646  0.79003258     0.07100
C1785       C  0.45898722  0.59242809  0.61030033    -0.22600
C1786       C  0.45108654  0.57034068  0.62698292     0.09400
C1787       C  0.47845342  0.58425000  0.64200365     0.09800
C1788       C  0.51355758  0.61985898  0.63988807    -0.17500
C1789       C  0.52178748  0.64184821  0.62311036    -0.27900
C1790       C  0.49367970  0.62845308  0.60829406     0.18100
C1791       C  0.41409083  0.53245725  0.62827111     0.12100
C1792       C  0.47040600  0.56164500  0.66027683    -0.12200
H1793       H  0.53489128  0.63046121  0.65132559     0.12400
C1794       C  0.49827241  0.65202109  0.59064292    -0.23100
H1795       H  0.43755124  0.58178256  0.59890303     0.08000
C1796       C  0.37814575  0.53050091  0.63228109     0.04400
C1797       C  0.34355644  0.49392462  0.63219248    -0.20300
C1798       C  0.34411068  0.45929665  0.62802769    -0.12600
C1799       C  0.38060729  0.46137983  0.62474699     0.13100
C1800       C  0.41508044  0.49797925  0.62495020    -0.23000
C1801       C  0.37641269  0.56701002  0.63667122    -0.06100
H1802       H  0.31581292  0.49251656  0.63484988     0.14600
C1803       C  0.38376360  0.42531383  0.62131414    -0.16300
H1804       H  0.44301501  0.49988006  0.62216735     0.08900
H1805       H  0.47244768  0.65599828  0.58907467     0.06800
H1806       H  0.50013184  0.63621828  0.57797929     0.08000
H1807       H  0.52439053  0.68164216  0.59105530     0.07000
H1808       H  0.46684919  0.53235470  0.65740006     0.01900
H1809       H  0.44316590  0.55797654  0.66681741     0.02400
H1810       H  0.49465924  0.57693450  0.67067170     0.05900
H1811       H  0.34606564  0.56027504  0.63977446     0.04900
H1812       H  0.38731796  0.58726533  0.62435682    -0.00900
H1813       H  0.39488646  0.58187867  0.64929485     0.00600
H1814       H  0.41475287  0.43231259  0.62078280     0.04300
H1815       H  0.37018957  0.41186395  0.60747903     0.06200
H1816       H  0.36909485  0.40394359  0.63297762     0.07100
C1817       C  0.96176597  0.08817650  0.59840938    -0.22600
C1818       C  0.94903100  0.06727036  0.61548665     0.09400
C1819       C  0.96999804  0.08394230  0.63241922     0.09800
C1820       C  0.00293155  0.12161216  0.63198028    -0.17500
C1821       C  0.01589395  0.14273915  0.61493185    -0.27900
C1822       C  0.99488792  0.12586954  0.59788139     0.18100
C1823       C  0.91259683  0.02869321  0.61560969     0.12100
C1824       C  0.95782403  0.06174339  0.65090130    -0.12200
H1825       H  0.01922887  0.13434146  0.64497631     0.12400
C1826       C  0.00540713  0.14707182  0.57907786    -0.23100
H1827       H  0.94525949  0.07529405  0.58547899     0.08000
C1828       C  0.87608705  0.02569755  0.61933096     0.04400
C1829       C  0.84248350  0.98856657  0.62034362    -0.20300
C1830       C  0.84444830  0.95426988  0.61771811    -0.12600
C1831       C  0.88129809  0.95731823  0.61422438     0.13100
C1832       C  0.91483324  0.99462924  0.61295817    -0.23000
C1833       C  0.87264341  0.06173050  0.62224338    -0.06100
H1834       H  0.81434823  0.98628058  0.62303456     0.14600
C1835       C  0.88689946  0.92224961  0.61275973    -0.16300
H1836       H  0.94314034  0.99717702  0.61044467     0.08900
H1837       H  0.97955367  0.14778443  0.57329390     0.06800
H1838       H  0.01407909  0.13130952  0.56885518     0.08000
H1839       H  0.02944938  0.17783694  0.58012306     0.07000
H1840       H  0.95888539  0.03423364  0.64951756     0.01900
H1841       H  0.92756661  0.05443456  0.65458419     0.02400
H1842       H  0.97742736  0.07905960  0.66279923     0.05900
H1843       H  0.84194116  0.05415999  0.62505623     0.04900
H1844       H  0.88285390  0.08030625  0.60931936    -0.00900
H1845       H  0.89081066  0.07879836  0.63455785     0.00600
H1846       H  0.89755365  0.92095615  0.59832804     0.04300
H1847       H  0.85991608  0.89414923  0.61564652     0.06200
H1848       H  0.90903909  0.92502276  0.62336976     0.07100
C1849       C  0.45235537  0.76671396  0.62355711    -0.22600
C1850       C  0.45303772  0.80261121  0.62324376     0.09400
C1851       C  0.48923498  0.83790031  0.62413213     0.09800
C1852       C  0.52406307  0.83650175  0.62494743    -0.17500
C1853       C  0.52355885  0.80064725  0.62500335    -0.27900
C1854       C  0.48717608  0.76519085  0.62423137     0.18100
C1855       C  0.41553707  0.80274612  0.62231430     0.12100
C1856       C  0.49111671  0.87702408  0.62384099    -0.12200
H1857       H  0.55194999  0.86358312  0.62538494     0.12400
C1858       C  0.48380257  0.72537713  0.62320253    -0.23100
H1859       H  0.42443870  0.73968400  0.62291959     0.08000
C1860       C  0.39439445  0.79588655  0.60517749     0.04400
C1861       C  0.35950232  0.79735786  0.60510262    -0.20300
C1862       C  0.34503807  0.80506084  0.62182660    -0.12600
C1863       C  0.36659313  0.81214798  0.63895149     0.13100
C1864       C  0.40149822  0.81088314  0.63893046    -0.23000
C1865       C  0.40891161  0.78752115  0.58697015    -0.06100
H1866       H  0.34316354  0.79197935  0.59196692     0.14600
C1867       C  0.35366790  0.82188075  0.65726549    -0.16300
H1868       H  0.41808446  0.81628635  0.65198827     0.08900
H1869       H  0.46715217  0.70984649  0.61023921     0.06800
H1870       H  0.46783022  0.70791975  0.63586128     0.08000
H1871       H  0.51239960  0.72657414  0.62248805     0.07000
H1872       H  0.47555849  0.87977264  0.63635674     0.01900
H1873       H  0.47718344  0.87973060  0.61064141     0.02400
H1874       H  0.52178826  0.90169896  0.62429017     0.05900
H1875       H  0.38917754  0.78340508  0.57482129     0.04900
H1876       H  0.41056498  0.76037092  0.58851226    -0.00900
H1877       H  0.43845673  0.81235068  0.58359412     0.00600
H1878       H  0.34809138  0.84656325  0.65507455     0.04300
H1879       H  0.32689302  0.79565270  0.66238892     0.06200
H1880       H  0.37616501  0.83059151  0.66860246     0.07100
C1881       C  0.90455552  0.80998008  0.60201081    -0.22600
C1882       C  0.92379255  0.81576217  0.61943712     0.09400
C1883       C  0.90615708  0.81876840  0.63626992     0.09800
C1884       C  0.86859010  0.81424099  0.63537824    -0.17500
C1885       C  0.84866830  0.80755436  0.61796844    -0.27900
C1886       C  0.86721816  0.80596554  0.60099786     0.18100
C1887       C  0.96120348  0.81580540  0.61982587     0.12100
C1888       C  0.92706596  0.82681560  0.65510575    -0.12200
H1889       H  0.85479390  0.81617430  0.64833200     0.12400
C1890       C  0.84737173  0.79829717  0.58188144    -0.23100
H1891       H  0.91856572  0.80774497  0.58919730     0.08000
C1892       C  0.96195023  0.78094948  0.62317341     0.04400
C1893       C  0.99793975  0.78197076  0.62329789    -0.20300
C1894       C  0.03313444  0.81697010  0.61997453    -0.12600
C1895       C  0.03236612  0.85215928  0.61706406     0.13100
C1896       C  0.99619204  0.85090849  0.61667469    -0.23000
C1897       C  0.92468210  0.74257344  0.62624618    -0.06100
H1898       H  0.99856207  0.75510898  0.62565047     0.14600
C1899       C  0.06884311  0.89170531  0.61531759    -0.16300
H1900       H  0.99529966  0.87763349  0.61432053     0.08900
H1901       H  0.81866135  0.77075266  0.58239586     0.06800
H1902       H  0.86508756  0.79509348  0.57051280     0.08000
H1903       H  0.84311411  0.82311816  0.57784499     0.07000
H1904       H  0.95495720  0.85518392  0.65443373     0.01900
H1905       H  0.93361329  0.80321149  0.65851028     0.02400
H1906       H  0.90918666  0.82849669  0.66685748     0.05900
H1907       H  0.93054552  0.71811171  0.62856499     0.04900
H1908       H  0.90544639  0.73545531  0.61358299    -0.00900
H1909       H  0.90899625  0.74454972  0.63889723     0.00600
H1910       H  0.07020316  0.90387548  0.60093636     0.04300
H1911       H  0.09604100  0.89083809  0.61789981     0.06200
H1912       H  0.06806998  0.91198085  0.62604633     0.07100
C1913       C  0.78144603  0.73273810  0.47935114    -0.22600
C1914       C  0.76853288  0.70768374  0.49509140     0.09400
C1915       C  0.76666171  0.67103940  0.49397262     0.09800
C1916       C  0.77836439  0.66051133  0.47716293    -0.17500
C1917       C  0.79146632  0.68563621  0.46137346    -0.27900
C1918       C  0.79218320  0.72194527  0.46236496     0.18100
C1919       C  0.75579244  0.71992302  0.51235848     0.12100
C1920       C  0.75257421  0.64324611  0.51057100    -0.12200
H1921       H  0.77753067  0.63263942  0.47637344     0.12400
C1922       C  0.80197424  0.74919111  0.44561191    -0.23100
H1923       H  0.78204908  0.76050785  0.48015630     0.08000
C1924       C  0.78300787  0.74699310  0.52541107     0.04400
C1925       C  0.76944606  0.75792914  0.54142168    -0.20300
C1926       C  0.72916053  0.74238783  0.54487515    -0.12600
C1927       C  0.70188395  0.71525547  0.53152950     0.13100
C1928       C  0.71569869  0.70458396  0.51548099    -0.23000
C1929       C  0.82637676  0.76408286  0.52251661    -0.06100
H1930       H  0.79062853  0.77869373  0.55136351     0.14600
C1931       C  0.65827006  0.69807888  0.53358071    -0.16300
H1932       H  0.69508562  0.68411375  0.50520735     0.08900
H1933       H  0.82924926  0.77721088  0.44861436     0.06800
H1934       H  0.77775138  0.75538839  0.44322409     0.08000
H1935       H  0.80563520  0.73691415  0.43213975     0.07000
H1936       H  0.72177585  0.63453543  0.51390443     0.01900
H1937       H  0.77120597  0.65772050  0.52320053     0.02400
H1938       H  0.75377381  0.61622726  0.50750569     0.05900
H1939       H  0.84367056  0.78452658  0.53416169     0.04900
H1940       H  0.83540084  0.78056534  0.50894053    -0.00900
H1941       H  0.83350734  0.74018461  0.52206913     0.00600
H1942       H  0.65120608  0.72195561  0.53472653     0.04300
H1943       H  0.64762278  0.67903645  0.54632312     0.06200
H1944       H  0.64200432  0.67968520  0.52114883     0.07100
loop_ 
_geom_bond_atom_site_label_1 
_geom_bond_atom_site_label_2 
_geom_bond_distance 
_geom_bond_site_symmetry_2 
_ccdc_geom_bond_type 
Zr1           O2   2.439       .  S
Zr1           O3   2.439       .  S
Zr1           O4   2.444       .  S
Zr1           O7   2.419       .  S
Zr1           O9   2.378       .  S
Zr1          O10   2.383       .  S
Zr1          O11   2.405       .  S
Zr1          O12   2.408       .  S
O2           H58   0.990       .  S
O2           H66   0.990       .  S
O3           C23   1.285       .  A
O4           C25   1.286       .  A
O5          Zr15   2.436       .  S
O5           C24   1.286       .  A
O6          Zr14   2.438       .  S
O6           C25   1.286       .  A
O7           C24   1.282       .  A
O8          Zr16   2.422       .  S
O8           C23   1.282       .  A
O9          Zr14   2.390       .  S
O9          Zr16   2.382       .  S
O10         Zr15   2.386       .  S
O10         Zr16   2.372       .  S
O10          H45   0.966       .  S
O11         Zr14   2.399       .  S
O11         Zr31   2.395       .  S
O11          H48   0.965       .  S
O12         Zr15   2.395       .  S
O12         Zr31   2.400       .  S
Zr13         O38   2.440       .  S
Zr13         O32   2.412       .  S
Zr13         O40   2.445       .  S
Zr13         O28   2.431       .  S
Zr13         O19   2.397       .  S
Zr13         O20   2.401       .  S
Zr13         O21   2.381       .  S
Zr13         O22   2.381       .  S
Zr14         O33   2.437       .  S
Zr14         O26   2.433       .  S
Zr14         O27   2.436       .  S
Zr14         O20   2.395       .  S
Zr14         O21   2.387       .  S
Zr15         O17   2.435       .  S
Zr15         O39   2.437       .  S
Zr15         O41   2.436       .  S
Zr15         O19   2.391       .  S
Zr15         O22   2.389       .  S
Zr16         O42   2.436       .  S
Zr16         O43   2.436       .  S
Zr16         O18   2.436       .  S
Zr16         O19   2.400       .  S
Zr16         O20   2.390       .  S
O17          H54   0.990       .  S
O18          H49   0.990       .  S
O18          H63   0.990       .  S
O20          H46   0.966       .  S
O21         Zr31   2.372       .  S
O22         Zr31   2.370       .  S
O22          H47   0.965       .  S
C23        C1853   1.476       .  S
C24        C1789   1.474       .  S
C25        C1757   1.491       .  S
O26          H62   0.990       .  S
O27          C29   1.286       .  A
O28          C29   1.285       .  A
C29        C1830   1.479       .  S
O30         Zr31   2.440       .  S
O30          H59   0.990       .  S
Zr31         O34   2.439       .  S
Zr31         O35   2.442       .  S
Zr31         O36   2.437       .  S
O32          C37   1.280       .  A
O33          H50   0.990       .  S
O33          H65   0.990       .  S
O34          H51   0.990       .  S
O35          H55   0.990       .  S
O35          H64   0.990       .  S
O36          C37   1.285       .  A
C37        C1885   1.481       .  S
O38          H57   0.990       .  S
O38          H61   0.990       .  S
O39          H53   0.990       .  S
O39          H60   0.989       .  S
O40          C44   1.289       .  A
O41          C44   1.285       .  A
O42          H52   0.990       .  S
O43          H56   0.990       .  S
C44        C1926   1.498       .  S
Zr67         O68   2.442       .  S
Zr67         O69   2.449       .  S
Zr67         O70   2.440       .  S
Zr67         O73   2.420       .  S
Zr67         O75   2.380       .  S
Zr67         O76   2.382       .  S
Zr67         O77   2.409       .  S
Zr67         O78   2.410       .  S
O68         H124   0.990       .  S
O68         H132   0.990       .  S
O69          C89   1.286       .  A
O70          C91   1.284       .  A
O71         Zr81   2.425       .  S
O71          C90   1.283       .  A
O72         Zr80   2.437       .  S
O72          C91   1.285       .  A
O73          C90   1.282       .  A
O74         Zr82   2.411       .  S
O74          C89   1.279       .  A
O75         Zr80   2.397       .  S
O75         Zr82   2.386       .  S
O76         Zr81   2.392       .  S
O76         Zr82   2.373       .  S
O76         H111   0.966       .  S
O77         Zr80   2.402       .  S
O77         Zr97   2.390       .  S
O77         H114   0.964       .  S
O78         Zr81   2.397       .  S
O78         Zr97   2.397       .  S
Zr79        O104   2.441       .  S
Zr79         O98   2.407       .  S
Zr79        O106   2.428       .  S
Zr79         O94   2.436       .  S
Zr79         O85   2.396       .  S
Zr79         O86   2.398       .  S
Zr79         O87   2.379       .  S
Zr79         O88   2.382       .  S
Zr80         O99   2.436       .  S
Zr80         O92   2.434       .  S
Zr80         O93   2.431       .  S
Zr80         O86   2.399       .  S
Zr80         O87   2.387       .  S
Zr81         O83   2.435       .  S
Zr81        O105   2.433       .  S
Zr81        O107   2.441       .  S
Zr81         O85   2.393       .  S
Zr81         O88   2.384       .  S
Zr82        O108   2.436       .  S
Zr82        O109   2.436       .  S
Zr82         O84   2.437       .  S
Zr82         O85   2.395       .  S
Zr82         O86   2.391       .  S
O83         H120   0.990       .  S
O84         H115   0.990       .  S
O84         H129   0.990       .  S
O86         H112   0.965       .  S
O87         Zr97   2.376       .  S
O88         Zr97   2.365       .  S
O88         H113   0.960       .  S
C89        C1670   1.486       .  S
C90        C1725   1.477       .  S
C91        C1606   1.487       .  S
O92         H128   0.990       .  S
O93          C95   1.284       .  A
O94          C95   1.286       .  A
C95        C1693   1.496   1_655  S
O96         Zr97   2.439       .  S
O96         H125   0.991       .  S
Zr97        O100   2.437       .  S
Zr97        O101   2.440       .  S
Zr97        O102   2.427       .  S
O98         C103   1.279       .  A
O99         H116   0.990       .  S
O99         H131   0.990       .  S
O100        H117   0.990       .  S
O101        H121   0.990       .  S
O101        H130   0.990       .  S
O102        C103   1.284       .  A
C103       C1629   1.481       .  S
O104        H123   0.990       .  S
O104        H127   0.990       .  S
O105        H119   0.990       .  S
O105        H126   0.990       .  S
O106        C110   1.284       .  A
O107        C110   1.286       .  A
O108        H118   0.990       .  S
O109        H122   0.990       .  S
C110       C1917   1.480       .  S
Zr133       O134   2.440       .  S
Zr133       O135   2.429       .  S
Zr133       O136   2.447       .  S
Zr133       O139   2.434       .  S
Zr133       O141   2.384       .  S
Zr133       O142   2.383       .  S
Zr133       O143   2.406       .  S
Zr133       O144   2.405       .  S
O134        H190   0.991       .  S
O134        H198   0.990       .  S
O135        C155   1.283       .  A
O136        C157   1.286       .  A
O137       Zr147   2.440       .  S
O137        C156   1.287       .  A
O138       Zr146   2.434       .  S
O138        C157   1.283       .  A
O139        C156   1.285       .  A
O140       Zr148   2.407       .  S
O140        C155   1.280       .  A
O141       Zr146   2.389       .  S
O141       Zr148   2.381       .  S
O142       Zr147   2.391       .  S
O142       Zr148   2.378       .  S
O142        H177   0.966       .  S
O143       Zr146   2.397       .  S
O143       Zr163   2.387       .  S
O143        H180   0.965       .  S
O144       Zr147   2.400       .  S
O144       Zr163   2.405       .  S
Zr145       O170   2.438       .  S
Zr145       O164   2.420       .  S
Zr145       O172   2.435       .  S
Zr145       O160   2.419       .  S
Zr145       O151   2.395       .  S
Zr145       O152   2.403       .  S
Zr145       O153   2.381       .  S
Zr145       O154   2.377       .  S
Zr146       O165   2.438       .  S
Zr146       O158   2.437       .  S
Zr146       O159   2.419       .  S
Zr146       O152   2.397       .  S
Zr146       O153   2.388       .  S
Zr147       O149   2.435       .  S
Zr147       O171   2.436       .  S
Zr147       O173   2.437       .  S
Zr147       O151   2.394       .  S
Zr147       O154   2.388       .  S
Zr148       O174   2.436       .  S
Zr148       O175   2.436       .  S
Zr148       O150   2.438       .  S
Zr148       O151   2.401       .  S
Zr148       O152   2.385       .  S
O149        H186   0.990       .  S
O150        H181   0.990       .  S
O150        H195   0.990       .  S
O152        H178   0.966       .  S
O153       Zr163   2.369       .  S
O154       Zr163   2.364       .  S
O154        H179   0.965       .  S
C155       C1734   1.474       .  S
C156       C1574   1.492       .  S
C157       C1478   1.482       .  S
O158        H194   0.990       .  S
O159        C161   1.281       .  A
O160        C161   1.284       .  A
C161       C1533   1.491       .  S
O162       Zr163   2.438       .  S
O162        H191   0.990       .  S
Zr163       O166   2.437       .  S
Zr163       O167   2.437       .  S
Zr163       O168   2.439       .  S
O164        C169   1.282       .  A
O165        H182   0.990       .  S
O165        H197   0.990       .  S
O166        H183   0.990       .  S
O167        H187   0.990   1_545  S
O167        H196   0.990       .  S
O168        C169   1.286       .  A
C169       C1702   1.479   1_545  S
O170        H189   0.990       .  S
O170        H193   0.990       .  S
O171        H185   0.990       .  S
O171        H192   0.990       .  S
O172        C176   1.286       .  A
O173        C176   1.285       .  A
O174        H184   0.990       .  S
O175        H188   0.990       .  S
C176       C1510   1.481       .  S
Zr199       O200   2.436       .  S
Zr199       O201   2.431       .  S
Zr199       O202   2.442       .  S
Zr199       O205   2.427       .  S
Zr199       O207   2.379       .  S
Zr199       O208   2.382       .  S
Zr199       O209   2.399       .  S
Zr199       O210   2.405       .  S
O200        H256   0.990       .  S
O200        H264   0.990       .  S
O201        C221   1.284       .  A
O202        C223   1.286       .  A
O203       Zr213   2.442       .  S
O203        C222   1.287       .  A
O204       Zr212   2.439       .  S
O204        C223   1.285       .  A
O205        C222   1.284       .  A
O206       Zr214   2.423       .  S
O206        C221   1.283       .  A
O207       Zr212   2.390       .  S
O207       Zr214   2.382       .  S
O208       Zr213   2.386       .  S
O208       Zr214   2.373       .  S
O208        H243   0.966       .  S
O209       Zr212   2.393       .  S
O209       Zr229   2.392       .  S
O209        H246   0.966       .  S
O210       Zr213   2.392       .  S
O210       Zr229   2.400       .  S
Zr211       O236   2.440       .  S
Zr211       O230   2.423       .  S
Zr211       O238   2.437       .  S
Zr211       O226   2.433       .  S
Zr211       O217   2.401       .  S
Zr211       O218   2.404       .  S
Zr211       O219   2.375       .  S
Zr211       O220   2.382       .  S
Zr212       O231   2.437       .  S
Zr212       O224   2.435       .  S
Zr212       O225   2.420       .  S
Zr212       O218   2.401       .  S
Zr212       O219   2.385       .  S
Zr213       O215   2.434       .  S
Zr213       O237   2.437       .  S
Zr213       O239   2.440       .  S
Zr213       O217   2.395       .  S
Zr213       O220   2.390       .  S
Zr214       O240   2.437       .  S
Zr214       O241   2.437       .  S
Zr214       O216   2.437       .  S
Zr214       O217   2.401       .  S
Zr214       O218   2.394       .  S
O215        H252   0.990       .  S
O216        H247   0.990       .  S
O216        H261   0.990       .  S
O218        H244   0.966       .  S
O219       Zr229   2.366       .  S
O220       Zr229   2.369       .  S
O220        H245   0.966       .  S
C221       C1414   1.478       .  S
C222       C1862   1.485       .  S
C223       C1373   1.488       .  S
O224        H260   0.990       .  S
O225        C227   1.284       .  A
O226        C227   1.286       .  A
C227       C1894   1.474       .  S
O228       Zr229   2.438       .  S
O228        H257   0.990       .  S
Zr229       O232   2.436       .  S
Zr229       O233   2.440       .  S
Zr229       O234   2.432       .  S
O230        C235   1.283       .  A
O231        H248   0.990       .  S
O231        H263   0.990       .  S
O232        H249   0.990       .  S
O233        H253   0.990       .  S
O233        H262   0.990       .  S
O234        C235   1.284       .  A
C235       C1437   1.475       .  S
O236        H255   0.990       .  S
O236        H259   0.990       .  S
O237        H251   0.990       .  S
O237        H258   0.990       .  S
O238        C242   1.287       .  A
O239        C242   1.286       .  A
O240        H250   0.990       .  S
O241        H254   0.990       .  S
C242       C1501   1.488       .  S
Zr265       O266   2.442       .  S
Zr265       O267   2.441       .  S
Zr265       O268   2.459       .  S
Zr265       O271   2.425       .  S
Zr265       O273   2.378       .  S
Zr265       O274   2.388       .  S
Zr265       O275   2.404       .  S
Zr265       O276   2.411       .  S
O266        H322   0.990       .  S
O266        H330   0.990       .  S
O267        C287   1.285       .  A
O268        C289   1.287       .  A
O269       Zr279   2.431       .  S
O269        C288   1.284       .  A
O270       Zr278   2.425       .  S
O270        C289   1.283       .  A
O271        C288   1.283       .  A
O272       Zr280   2.418       .  S
O272        C287   1.281       .  A
O273       Zr278   2.395       .  S
O273       Zr280   2.384       .  S
O274       Zr279   2.392       .  S
O274       Zr280   2.375       .  S
O274        H309   0.966       .  S
O275       Zr278   2.398       .  S
O275       Zr295   2.392       .  S
O275        H312   0.965       .  S
O276       Zr279   2.399       .  S
O276       Zr295   2.399       .  S
Zr277       O302   2.439       .  S
Zr277       O296   2.420       .  S
Zr277       O304   2.435       .  S
Zr277       O292   2.433       .  S
Zr277       O283   2.402       .  S
Zr277       O284   2.399       .  S
Zr277       O285   2.378       .  S
Zr277       O286   2.381       .  S
Zr278       O297   2.436       .  S
Zr278       O290   2.434       .  S
Zr278       O291   2.427       .  S
Zr278       O284   2.395       .  S
Zr278       O285   2.387       .  S
Zr279       O281   2.435       .  S
Zr279       O303   2.436       .  S
Zr279       O305   2.448       .  S
Zr279       O283   2.393       .  S
Zr279       O286   2.387       .  S
Zr280       O306   2.436       .  S
Zr280       O307   2.437       .  S
Zr280       O282   2.437       .  S
Zr280       O283   2.402       .  S
Zr280       O284   2.389       .  S
O281        H318   0.990       .  S
O282        H313   0.990       .  S
O282        H327   0.990       .  S
O284        H310   0.966       .  S
O285       Zr295   2.374       .  S
O286       Zr295   2.364       .  S
O286        H311   0.965       .  S
C287       C1798   1.485       .  S
C288       C1405   1.477       .  S
C289       C1318   1.493       .  S
O290        H326   0.989       .  S
O291        C293   1.284       .  A
O292        C293   1.286       .  A
C293       C1446   1.483       .  S
O294       Zr295   2.439       .  S
O294        H323   0.990       .  S
Zr295       O298   2.437       .  S
Zr295       O299   2.441       .  S
Zr295       O300   2.437       .  S
O296        C301   1.282       .  A
O297        H314   0.990       .  S
O297        H329   0.990       .  S
O298        H315   0.990       .  S
O299        H319   0.990       .  S
O299        H328   0.990       .  S
O300        C301   1.285       .  A
C301       C1821   1.477       .  S
O302        H321   0.990       .  S
O302        H325   0.990       .  S
O303        H317   0.990       .  S
O303        H324   0.990       .  S
O304        C308   1.285       .  A
O305        C308   1.288       .  A
O306        H316   0.990       .  S
O307        H320   0.990       .  S
C308       C1341   1.491       .  S
Zr331       O332   2.440       .  S
Zr331       O333   2.446       .  S
Zr331       O334   2.434       .  S
Zr331       O337   2.416       .  S
Zr331       O339   2.380       .  S
Zr331       O340   2.380       .  S
Zr331       O341   2.406       .  S
Zr331       O342   2.408       .  S
O332        H388   0.990       .  S
O332        H396   0.990       .  S
O333        C353   1.286       .  A
O334        C355   1.285       .  A
O335       Zr345   2.445       .  S
O335        C354   1.288       .  A
O336       Zr344   2.443       .  S
O336        C355   1.285       .  A
O337        C354   1.282       .  A
O338       Zr346   2.416       .  S
O338        C353   1.281       .  A
O339       Zr344   2.393       .  S
O339       Zr346   2.384       .  S
O340       Zr345   2.387       .  S
O340       Zr346   2.374       .  S
O340        H375   0.966       .  S
O341       Zr344   2.394       .  S
O341       Zr361   2.393       .  S
O341        H378   0.966       .  S
O342       Zr345   2.388       .  S
O342       Zr361   2.403       .  S
Zr343       O368   2.442       .  S
Zr343       O362   2.407       .  S
Zr343       O370   2.442       .  S
Zr343       O358   2.431       .  S
Zr343       O349   2.393       .  S
Zr343       O350   2.400       .  S
Zr343       O351   2.383       .  S
Zr343       O352   2.381       .  S
Zr344       O363   2.437       .  S
Zr344       O356   2.435       .  S
Zr344       O357   2.427       .  S
Zr344       O350   2.400       .  S
Zr344       O351   2.388       .  S
Zr345       O347   2.434       .  S
Zr345       O369   2.435       .  S
Zr345       O371   2.432       .  S
Zr345       O349   2.401       .  S
Zr345       O352   2.385       .  S
Zr346       O372   2.435       .  S
Zr346       O373   2.437       .  S
Zr346       O348   2.438       .  S
Zr346       O349   2.395       .  S
Zr346       O350   2.388       .  S
O347        H384   0.990       .  S
O348        H379   0.990       .  S
O348        H393   0.990       .  S
O350        H376   0.966       .  S
O351       Zr361   2.370       .  S
O352       Zr361   2.368       .  S
O352        H377   0.966       .  S
C353       C1565   1.476       .  S
C354       C1661   1.478       .  S
C355       C1277   1.496       .  S
O356        H392   0.990       .  S
O357        C359   1.283       .  A
O358        C359   1.285       .  A
C359       C1638   1.476   1_545  S
O360       Zr361   2.439       .  S
O360        H389   0.990       .  S
Zr361       O364   2.437       .  S
Zr361       O365   2.440       .  S
Zr361       O366   2.433       .  S
O362        C367   1.279       .  A
O363        H380   0.990       .  S
O363        H395   0.990       .  S
O364        H381   0.990       .  S
O365        H385   0.990       .  S
O365        H394   0.990       .  S
O366        C367   1.284       .  A
C367       C1542   1.465   1_655  S
O368        H387   0.990       .  S
O368        H391   0.990       .  S
O369        H383   0.990       .  S
O369        H390   0.990       .  S
O370        C374   1.287       .  A
O371        C374   1.285       .  A
O372        H382   0.990       .  S
O373        H386   0.990       .  S
C374       C1350   1.475       .  S
Zr397       O398   2.439       .  S
Zr397       O399   2.423       .  S
Zr397       O400   2.435       .  S
Zr397       O403   2.434       .  S
Zr397       O405   2.379       .  S
Zr397       O406   2.383       .  S
Zr397       O407   2.403       .  S
Zr397       O408   2.400       .  S
O398        H454   0.991       .  S
O398        H462   0.990       .  S
O399        C419   1.282       .  A
O400        C421   1.285       .  A
O401       Zr411   2.441       .  S
O401        C420   1.286       .  A
O402       Zr410   2.441       .  S
O402        C421   1.285       .  A
O403        C420   1.285       .  A
O404       Zr412   2.421       .  S
O404        C419   1.282       .  A
O405       Zr410   2.392       .  S
O405       Zr412   2.371       .  S
O406       Zr411   2.389       .  S
O406       Zr412   2.377       .  S
O406        H441   0.966       .  S
O407       Zr410   2.402       .  S
O407       Zr427   2.401       .  S
O407        H444   0.966       .  S
O408       Zr411   2.389       .  S
O408       Zr427   2.393       .  S
Zr409       O434   2.443       .  S
Zr409       O428   2.443       .  S
Zr409       O436   2.452       .  S
Zr409       O424   2.431       .  S
Zr409       O415   2.398       .  S
Zr409       O416   2.415       .  S
Zr409       O417   2.381       .  S
Zr409       O418   2.384       .  S
Zr410       O429   2.437       .  S
Zr410       O422   2.435       .  S
Zr410       O423   2.441       .  S
Zr410       O416   2.402       .  S
Zr410       O417   2.393       .  S
Zr411       O413   2.434       .  S
Zr411       O435   2.439       .  S
Zr411       O437   2.426       .  S
Zr411       O415   2.394       .  S
Zr411       O418   2.399       .  S
Zr412       O438   2.435       .  S
Zr412       O439   2.434       .  S
Zr412       O414   2.436       .  S
Zr412       O415   2.390       .  S
Zr412       O416   2.396       .  S
O413        H450   0.990       .  S
O414        H445   0.990       .  S
O414        H459   0.990       .  S
O416        H442   0.966       .  S
O417       Zr427   2.378       .  S
O418       Zr427   2.391       .  S
O418        H443   0.966       .  S
C419       C1213   1.471       .  S
C420       C1158   1.480       .  S
C421       C1254   1.497       .  S
O422        H458   0.990       .  S
O423        C425   1.287       .  A
O424        C425   1.283       .  A
C425       C1126   1.484       .  S
O426       Zr427   2.439       .  S
O426        H455   0.990       .  S
Zr427       O430   2.437       .  S
Zr427       O431   2.441       .  S
Zr427       O432   2.417       .  S
O428        C433   1.284       .  A
O429        H446   0.990       .  S
O429        H461   0.990       .  S
O430        H447   0.990       .  S
O431        H451   0.990       .  S
O431        H460   0.989       .  S
O432        C433   1.281       .  A
C433       C1190   1.484       .  S
O434        H453   0.990       .  S
O434        H457   0.990       .  S
O435        H449   0.990       .  S
O435        H456   0.990       .  S
O436        C440   1.286       .  A
O437        C440   1.283       .  A
O438        H448   0.990       .  S
O439        H452   0.990       .  S
C440       C1766   1.484       .  S
Zr463       O464   2.440       .  S
Zr463       O465   2.430       .  S
Zr463       O466   2.439       .  S
Zr463       O469   2.420       .  S
Zr463       O471   2.378       .  S
Zr463       O472   2.385       .  S
Zr463       O473   2.398       .  S
Zr463       O474   2.400       .  S
O464        H520   0.990       .  S
O464        H528   0.990       .  S
O465        C485   1.284       .  A
O466        C487   1.285       .  A
O467       Zr477   2.427       .  S
O467        C486   1.285       .  A
O468       Zr476   2.429       .  S
O468        C487   1.284       .  A
O469        C486   1.283       .  A
O470       Zr478   2.431       .  S
O470        C485   1.283       .  A
O471       Zr476   2.388       .  S
O471       Zr478   2.373       .  S
O472       Zr477   2.392       .  S
O472       Zr478   2.374       .  S
O472        H507   0.966       .  S
O473       Zr476   2.396       .  S
O473       Zr493   2.401       .  S
O473        H510   0.966       .  S
O474       Zr477   2.391       .  S
O474       Zr493   2.386       .  S
Zr475       O500   2.441       .  S
Zr475       O494   2.437       .  S
Zr475       O502   2.427       .  S
Zr475       O490   2.426       .  S
Zr475       O481   2.399       .  S
Zr475       O482   2.408       .  S
Zr475       O483   2.379       .  S
Zr475       O484   2.381       .  S
Zr476       O495   2.435       .  S
Zr476       O488   2.434       .  S
Zr476       O489   2.430       .  S
Zr476       O482   2.399       .  S
Zr476       O483   2.389       .  S
Zr477       O479   2.435       .  S
Zr477       O501   2.438       .  S
Zr477       O503   2.437       .  S
Zr477       O481   2.387       .  S
Zr477       O484   2.388       .  S
Zr478       O504   2.435       .  S
Zr478       O505   2.436       .  S
Zr478       O480   2.436       .  S
Zr478       O481   2.391       .  S
Zr478       O482   2.401       .  S
O479        H516   0.990       .  S
O480        H511   0.990       .  S
O480        H525   0.990       .  S
O482        H508   0.966       .  S
O483       Zr493   2.376       .  S
O484       Zr493   2.384       .  S
O484        H509   0.966       .  S
C485       C1062   1.485       .  S
C486        C989   1.472       .  S
C487       C1245   1.477       .  S
O488        H524   0.990       .  S
O489        C491   1.284       .  A
O490        C491   1.282       .  A
C491       C1021   1.478       .  S
O492       Zr493   2.441       .  S
O492        H521   0.991       .  S
Zr493       O496   2.437       .  S
Zr493       O497   2.441       .  S
Zr493       O498   2.414       .  S
O494        C499   1.285       .  A
O495        H512   0.990       .  S
O495        H527   0.990       .  S
O496        H513   0.990       .  S
O497        H517   0.990       .  S
O497        H526   0.989       .  S
O498        C499   1.281       .  A
C499       C1094   1.478       .  S
O500        H519   0.990       .  S
O500        H523   0.990       .  S
O501        H515   0.990       .  S
O501        H522   0.990       .  S
O502        C506   1.283       .  A
O503        C506   1.285       .  A
O504        H514   0.990       .  S
O505        H518   0.990       .  S
C506       C1597   1.474       .  S
Zr529       O530   2.438       .  S
Zr529       O531   2.415       .  S
Zr529       O532   2.437       .  S
Zr529       O535   2.423       .  S
Zr529       O537   2.377       .  S
Zr529       O538   2.383       .  S
Zr529       O539   2.395       .  S
Zr529       O540   2.396       .  S
O530        H586   0.990       .  S
O530        H594   0.990       .  S
O531        C551   1.280       .  A
O532        C553   1.284       .  A
O533       Zr543   2.435       .  S
O533        C552   1.285       .  A
O534       Zr542   2.449       .  S
O534        C553   1.289       .  A
O535        C552   1.285       .  A
O536       Zr544   2.432       .  S
O536        C551   1.284       .  A
O537       Zr542   2.390       .  S
O537       Zr544   2.372       .  S
O538       Zr543   2.394       .  S
O538       Zr544   2.373       .  S
O538        H573   0.966       .  S
O539       Zr542   2.392       .  S
O539       Zr559   2.397       .  S
O539        H576   0.966       .  S
O540       Zr543   2.392       .  S
O540       Zr559   2.387       .  S
Zr541       O566   2.442       .  S
Zr541       O560   2.445       .  S
Zr541       O568   2.438       .  S
Zr541       O556   2.430       .  S
Zr541       O547   2.394       .  S
Zr541       O548   2.416       .  S
Zr541       O549   2.381       .  S
Zr541       O550   2.382       .  S
Zr542       O561   2.435       .  S
Zr542       O554   2.434       .  S
Zr542       O555   2.436       .  S
Zr542       O548   2.409       .  S
Zr542       O549   2.394       .  S
Zr543       O545   2.435       .  S
Zr543       O567   2.438       .  S
Zr543       O569   2.448       .  S
Zr543       O547   2.388       .  S
Zr543       O550   2.395       .  S
Zr544       O570   2.435       .  S
Zr544       O571   2.436       .  S
Zr544       O546   2.436   1_545  S
Zr544       O547   2.392       .  S
Zr544       O548   2.399       .  S
O545        H582   0.990       .  S
O546        H577   0.990       .  S
O546        H591   0.990       .  S
O548        H574   0.965       .  S
O549       Zr559   2.381       .  S
O550       Zr559   2.391       .  S
O550        H575   0.966       .  S
C551        C998   1.480   1_545  S
C552        C934   1.489       .  S
C553        C902   1.498       .  S
O554        H590   0.990       .  S
O555        C557   1.285       .  A
O556        C557   1.282       .  A
C557        C957   1.478       .  S
O558       Zr559   2.441       .  S
O558        H587   0.990       .  S
Zr559       O562   2.437       .  S
Zr559       O563   2.440       .  S
Zr559       O564   2.411       .  S
O560        C565   1.285       .  A
O561        H578   0.990       .  S
O561        H593   0.990       .  S
O562        H579   0.990       .  S
O563        H583   0.990       .  S
O563        H592   0.990       .  S
O564        C565   1.279       .  A
C565       C1030   1.479       .  S
O566        H585   0.990       .  S
O566        H589   0.990       .  S
O567        H581   0.990       .  S
O567        H588   0.990       .  S
O568        C572   1.285       .  A
O569        C572   1.288       .  A
O570        H580   0.990       .  S
O571        H584   0.990       .  S
C572       C1469   1.495       .  S
Zr595       O596   2.438       .  S
Zr595       O597   2.422       .  S
Zr595       O598   2.448       .  S
Zr595       O601   2.430       .  S
Zr595       O603   2.374       .  S
Zr595       O604   2.385       .  S
Zr595       O605   2.401       .  S
Zr595       O606   2.403       .  S
O596        H652   0.990       .  S
O596        H660   0.990       .  S
O597        C617   1.281       .  A
O598        C619   1.287       .  A
O599       Zr609   2.428       .  S
O599        C618   1.283       .  A
O600       Zr608   2.432       .  S
O600        C619   1.284       .  A
O601        C618   1.286       .  A
O602       Zr610   2.431       .  S
O602        C617   1.284       .  A
O603       Zr608   2.389       .  S
O603       Zr610   2.372       .  S
O604       Zr609   2.393       .  S
O604       Zr610   2.377       .  S
O604        H639   0.966       .  S
O605       Zr608   2.398       .  S
O605       Zr625   2.402       .  S
O605        H642   0.966       .  S
O606       Zr609   2.392       .  S
O606       Zr625   2.396       .  S
Zr607       O632   2.440       .  S
Zr607       O626   2.433       .  S
Zr607       O634   2.438       .  S
Zr607       O622   2.417       .  S
Zr607       O613   2.396       .  S
Zr607       O614   2.405       .  S
Zr607       O615   2.377       .  S
Zr607       O616   2.377       .  S
Zr608       O627   2.438       .  S
Zr608       O620   2.435       .  S
Zr608       O621   2.435       .  S
Zr608       O614   2.397       .  S
Zr608       O615   2.383       .  S
Zr609       O611   2.435       .  S
Zr609       O633   2.438       .  S
Zr609       O635   2.436       .  S
Zr609       O613   2.386       .  S
Zr609       O616   2.384       .  S
Zr610       O636   2.435       .  S
Zr610       O637   2.435       .  S
Zr610       O612   2.436       .  S
Zr610       O613   2.396       .  S
Zr610       O614   2.398       .  S
O611        H648   0.990       .  S
O612        H643   0.990       .  S
O612        H657   0.990       .  S
O614        H640   0.966       .  S
O615       Zr625   2.364       .  S
O616       Zr625   2.382       .  S
O616        H641   0.966       .  S
C617        C861   1.484       .  S
C618       C1222   1.488       .  S
C619        C893   1.482       .  S
O620        H656   0.990       .  S
O621        C623   1.286       .  A
O622        C623   1.283       .  A
C623       C1181   1.474       .  S
O624       Zr625   2.439       .  S
O624        H653   0.990       .  S
Zr625       O628   2.437       .  S
Zr625       O629   2.439       .  S
Zr625       O630   2.434       .  S
O626        C631   1.284       .  A
O627        H644   0.990       .  S
O627        H659   0.990       .  S
O628        H645   0.990       .  S
O629        H649   0.990       .  S
O629        H658   0.990       .  S
O630        C631   1.285       .  A
C631        C829   1.476       .  S
O632        H651   0.990       .  S
O632        H655   0.990       .  S
O633        H647   0.990       .  S
O633        H654   0.990       .  S
O634        C638   1.286       .  A
O635        C638   1.286       .  A
O636        H646   0.990       .  S
O637        H650   0.990       .  S
C638       C1382   1.491       .  S
Zr661       O662   2.437       .  S
Zr661       O663   2.421       .  S
Zr661       O664   2.433       .  S
Zr661       O667   2.429       .  S
Zr661       O669   2.375       .  S
Zr661       O670   2.383       .  S
Zr661       O671   2.402       .  S
Zr661       O672   2.401       .  S
O662        H718   0.990       .  S
O662        H726   0.990       .  S
O663        C683   1.283       .  A
O664        C685   1.285       .  A
O665       Zr675   2.431       .  S
O665        C684   1.285       .  A
O666       Zr674   2.446       .  S
O666        C685   1.287       .  A
O667        C684   1.285       .  A
O668       Zr676   2.446       .  S
O668        C683   1.286       .  A
O669       Zr674   2.390       .  S
O669       Zr676   2.369       .  S
O670       Zr675   2.389       .  S
O670       Zr676   2.373       .  S
O670        H705   0.966       .  S
O671       Zr674   2.395       .  S
O671       Zr691   2.402       .  S
O671        H708   0.966       .  S
O672       Zr675   2.393       .  S
O672       Zr691   2.394       .  S
Zr673       O698   2.442       .  S
Zr673       O692   2.429       .  S
Zr673       O700   2.442       .  S
Zr673       O688   2.426       .  S
Zr673       O679   2.400       .  S
Zr673       O680   2.407       .  S
Zr673       O681   2.379       .  S
Zr673       O682   2.381       .  S
Zr674       O693   2.438       .  S
Zr674       O686   2.434       .  S
Zr674       O687   2.447       .  S
Zr674       O680   2.398       .  S
Zr674       O681   2.386       .  S
Zr675       O677   2.434       .  S
Zr675       O699   2.438       .  S
Zr675       O701   2.434       .  S
Zr675       O679   2.395       .  S
Zr675       O682   2.383       .  S
Zr676       O702   2.435       .  S
Zr676       O703   2.436       .  S
Zr676       O678   2.437       .  S
Zr676       O679   2.400       .  S
Zr676       O680   2.403       .  S
O677        H714   0.990       .  S
O678        H709   0.990   1_455  S
O678        H723   0.990       .  S
O680        H706   0.966       .  S
O681       Zr691   2.373       .  S
O682       Zr691   2.383       .  S
O682        H707   0.966       .  S
C683       C1149   1.493   1_455  S
C684        C870   1.482       .  S
C685        C806   1.485       .  S
O686        H722   0.990       .  S
O687        C689   1.288       .  A
O688        C689   1.284       .  A
C689        C838   1.488       .  S
O690       Zr691   2.441       .  S
O690        H719   0.990       .  S
Zr691       O694   2.437       .  S
Zr691       O695   2.439       .  S
Zr691       O696   2.424       .  S
O692        C697   1.284       .  A
O693        H710   0.990       .  S
O693        H725   0.990       .  S
O694        H711   0.990       .  S
O695        H715   0.990       .  S
O695        H724   0.990       .  S
O696        C697   1.282       .  A
C697       C1117   1.482       .  S
O698        H717   0.990       .  S
O698        H721   0.990       .  S
O699        H713   0.990       .  S
O699        H720   0.990       .  S
O700        C704   1.286       .  A
O701        C704   1.284       .  A
O702        H712   0.990       .  S
O703        H716   0.990       .  S
C704       C1309   1.482       .  S
Zr727       O728   2.440       .  S
Zr727       O729   2.432       .  S
Zr727       O730   2.430       .  S
Zr727       O733   2.423       .  S
Zr727       O735   2.379       .  S
Zr727       O736   2.385       .  S
Zr727       O737   2.405       .  S
Zr727       O738   2.398       .  S
O728        H784   0.991       .  S
O728        H792   0.990       .  S
O729        C749   1.284       .  A
O730        C751   1.284       .  A
O731       Zr741   2.436       .  S
O731        C750   1.285       .  A
O732       Zr740   2.438       .  S
O732        C751   1.285       .  A
O733        C750   1.283       .  A
O734       Zr742   2.432       .  S
O734        C749   1.284       .  A
O735       Zr740   2.391       .  S
O735       Zr742   2.374       .  S
O736       Zr741   2.389       .  S
O736       Zr742   2.378       .  S
O736        H771   0.966       .  S
O737       Zr740   2.394       .  S
O737       Zr757   2.399       .  S
O737        H774   0.966       .  S
O738       Zr741   2.383       .  S
O738       Zr757   2.388       .  S
Zr739       O764   2.449       .  S
Zr739       O758   2.441       .  S
Zr739       O766   2.450       .  S
Zr739       O754   2.441       .  S
Zr739       O745   2.399       .  S
Zr739       O746   2.410       .  S
Zr739       O747   2.382       .  S
Zr739       O748   2.385       .  S
Zr740       O759   2.436       .  S
Zr740       O752   2.434       .  S
Zr740       O753   2.434       .  S
Zr740       O746   2.395       .  S
Zr740       O747   2.387       .  S
Zr741       O743   2.435       .  S
Zr741       O765   2.437       .  S
Zr741       O767   2.424       .  S
Zr741       O745   2.388       .  S
Zr741       O748   2.385       .  S
Zr742       O768   2.436       .  S
Zr742       O769   2.436       .  S
Zr742       O744   2.437       .  S
Zr742       O745   2.392       .  S
Zr742       O746   2.399       .  S
O743        H780   0.990       .  S
O744        H775   0.990       .  S
O744        H789   0.990       .  S
O746        H772   0.966       .  S
O747       Zr757   2.376       .  S
O748       Zr757   2.384       .  S
O748        H773   0.966       .  S
C749        C925   1.480       .  S
C750       C1053   1.476   1_545  S
C751        C797   1.495       .  S
O752        H788   0.990       .  S
O753        C755   1.285       .  A
O754        C755   1.286       .  A
C755       C1085   1.481       .  S
O756       Zr757   2.441       .  S
O756        H785   0.990       .  S
Zr757       O760   2.437       .  S
Zr757       O761   2.439       .  S
Zr757       O762   2.421       .  S
O758        C763   1.287       .  A
O759        H776   0.990       .  S
O759        H791   0.990       .  S
O760        H777   0.990       .  S
O761        H781   0.990       .  S
O761        H790   0.989       .  S
O762        C763   1.281       .  A
C763        C966   1.492       .  S
O764        H783   0.990       .  S
O764        H787   0.990       .  S
O765        H779   0.990       .  S
O765        H786   0.990       .  S
O766        C770   1.287       .  A
O767        C770   1.284       .  A
O768        H778   0.990       .  S
O769        H782   0.990       .  S
C770       C1286   1.485       .  S
C793        C794   1.400       .  A
C793        C798   1.408       .  A
C793        H803   1.084       .  S
C794        C799   1.486   1_554  S
C794        C795   1.409       .  A
C795        C796   1.404       .  A
C795        C800   1.507       .  S
C796        C797   1.409       .  A
C796        H801   1.082       .  S
C797        C798   1.422       .  A
C798        C802   1.508       .  S
C799        C804   1.411       .  A
C799        C808   1.402   1_655  A
C800        H816   1.110   1_655  S
C800        H817   1.110       .  S
C800        H818   1.111       .  S
C802        H813   1.111       .  S
C802        H814   1.109       .  S
C802        H815   1.110       .  S
C804        C805   1.406   1_655  A
C804        C809   1.506       .  S
C805        C806   1.406       .  A
C805        H810   1.084   1_455  S
C806        C807   1.415       .  A
C807        C808   1.407       .  A
C807        C811   1.506       .  S
C808        H812   1.084   1_556  S
C809        H819   1.111       .  S
C809        H820   1.110       .  S
C809        H821   1.110       .  S
C811        H822   1.109       .  S
C811        H823   1.110       .  S
C811        H824   1.111       .  S
C825        C826   1.401       .  A
C825        C830   1.403       .  A
C825        H835   1.084       .  S
C826        C831   1.485       .  S
C826        C827   1.413       .  A
C827        C828   1.406       .  A
C827        C832   1.506       .  S
C828        C829   1.403       .  A
C828        H833   1.084       .  S
C829        C830   1.416       .  A
C830        C834   1.508       .  S
C831        C836   1.409       .  A
C831        C840   1.401       .  A
C832        H848   1.110       .  S
C832        H849   1.110       .  S
C832        H850   1.111       .  S
C834        H845   1.111       .  S
C834        H846   1.110       .  S
C834        H847   1.108       .  S
C836        C837   1.405       .  A
C836        C841   1.506       .  S
C837        C838   1.408       .  A
C837        H842   1.084       .  S
C838        C839   1.417       .  A
C839        C840   1.406       .  A
C839        C843   1.507       .  S
C840        H844   1.084       .  S
C841        H851   1.110       .  S
C841        H852   1.110       .  S
C841        H853   1.110       .  S
C843        H854   1.109       .  S
C843        H855   1.110       .  S
C843        H856   1.111       .  S
C857        C858   1.397       .  A
C857        C862   1.402   1_545  A
C857        H867   1.084       .  S
C858        C863   1.478       .  S
C858        C859   1.410       .  A
C859        C860   1.405       .  A
C859        C864   1.506       .  S
C860        C861   1.407   1_545  A
C860        H865   1.084       .  S
C861        C862   1.420       .  A
C862        C866   1.507       .  S
C863        C868   1.409       .  A
C863        C872   1.399       .  A
C864        H880   1.110       .  S
C864        H881   1.110       .  S
C864        H882   1.111       .  S
C866        H877   1.111       .  S
C866        H878   1.111       .  S
C866        H879   1.110       .  S
C868        C869   1.402       .  A
C868        C873   1.507       .  S
C869        C870   1.405       .  A
C869        H874   1.084       .  S
C870        C871   1.418       .  A
C871        C872   1.405       .  A
C871        C875   1.506       .  S
C872        H876   1.084       .  S
C873        H883   1.111       .  S
C873        H884   1.110       .  S
C873        H885   1.110       .  S
C875        H886   1.108       .  S
C875        H887   1.111       .  S
C875        H888   1.111       .  S
C889        C890   1.405       .  A
C889        C894   1.409       .  A
C889        H899   1.084       .  S
C890        C895   1.492   1_556  S
C890        C891   1.413       .  A
C891        C892   1.407       .  A
C891        C896   1.506   1_556  S
C892        C893   1.404       .  A
C892        H897   1.084       .  S
C893        C894   1.414       .  A
C894        C898   1.508       .  S
C895        C900   1.411   1_565  A
C895        C904   1.402       .  A
C896        H912   1.110       .  S
C896        H913   1.110       .  S
C896        H914   1.111       .  S
C898        H909   1.111       .  S
C898        H910   1.111       .  S
C898        H911   1.110       .  S
C900        C901   1.407       .  A
C900        C905   1.506       .  S
C901        C902   1.408       .  A
C901        H906   1.084       .  S
C902        C903   1.423   1_545  A
C903        C904   1.411       .  A
C903        C907   1.509       .  S
C904        H908   1.084       .  S
C905        H915   1.111       .  S
C905        H916   1.110   1_554  S
C905        H917   1.110   1_545  S
C907        H918   1.109   1_565  S
C907        H919   1.111       .  S
C907        H920   1.111       .  S
C921        C922   1.402       .  A
C921        C926   1.405       .  A
C921        H931   1.084       .  S
C922        C927   1.482       .  S
C922        C923   1.410       .  A
C923        C924   1.402       .  A
C923        C928   1.507       .  S
C924        C925   1.404   1_455  A
C924        H929   1.084   1_455  S
C925        C926   1.418   1_655  A
C926        C930   1.507       .  S
C927        C932   1.409       .  A
C927        C936   1.400       .  A
C928        H944   1.110       .  S
C928        H945   1.110       .  S
C928        H946   1.111       .  S
C930        H941   1.110   1_455  S
C930        H942   1.111       .  S
C930        H943   1.106   1_455  S
C932        C933   1.403       .  A
C932        C937   1.506       .  S
C933        C934   1.408       .  A
C933        H938   1.082       .  S
C934        C935   1.421       .  A
C935        C936   1.404       .  A
C935        C939   1.508       .  S
C936        H940   1.084       .  S
C937        H947   1.111       .  S
C937        H948   1.110       .  S
C937        H949   1.110       .  S
C939        H950   1.111       .  S
C939        H951   1.110       .  S
C939        H952   1.110       .  S
C953        C954   1.400       .  A
C953        C958   1.404       .  A
C953        H963   1.085       .  S
C954        C959   1.481       .  S
C954        C955   1.411       .  A
C955        C956   1.402       .  A
C955        C960   1.507       .  S
C956        C957   1.403       .  A
C956        H961   1.084       .  S
C957        C958   1.420       .  A
C958        C962   1.509       .  S
C959        C964   1.409       .  A
C959        C968   1.397       .  A
C960        H976   1.110       .  S
C960        H977   1.110       .  S
C960        H978   1.111       .  S
C962        H973   1.110       .  S
C962        H974   1.111       .  S
C962        H975   1.107       .  S
C964        C965   1.405       .  A
C964        C969   1.506       .  S
C965        C966   1.409       .  A
C965        H970   1.083       .  S
C966        C967   1.424       .  A
C967        C968   1.402       .  A
C967        C971   1.508       .  S
C968        H972   1.084       .  S
C969        H979   1.111       .  S
C969        H980   1.110       .  S
C969        H981   1.110       .  S
C971        H982   1.111       .  S
C971        H983   1.110       .  S
C971        H984   1.109       .  S
C985        C986   1.400       .  A
C985        C990   1.403       .  A
C985        H995   1.085       .  S
C986        C991   1.476       .  S
C986        C987   1.409       .  A
C987        C988   1.399   1_455  A
C987        C992   1.507       .  S
C988        C989   1.403       .  A
C988        H993   1.084       .  S
C989        C990   1.418   1_655  A
C990        C994   1.508   1_455  S
C991        C996   1.409       .  A
C991       C1000   1.398       .  A
C992       H1008   1.110       .  S
C992       H1009   1.110       .  S
C992       H1010   1.111       .  S
C994       H1005   1.111   1_655  S
C994       H1006   1.110       .  S
C994       H1007   1.106       .  S
C996        C997   1.403       .  A
C996       C1001   1.506       .  S
C997        C998   1.405       .  A
C997       H1002   1.084       .  S
C998        C999   1.419       .  A
C999       C1000   1.402       .  A
C999       C1003   1.508   1_565  S
C1000      H1004   1.084       .  S
C1001      H1011   1.111       .  S
C1001      H1012   1.110       .  S
C1001      H1013   1.110       .  S
C1003      H1014   1.111   1_545  S
C1003      H1015   1.109       .  S
C1003      H1016   1.111       .  S
C1017      C1018   1.400       .  A
C1017      C1022   1.403       .  A
C1017      H1027   1.084       .  S
C1018      C1023   1.478       .  S
C1018      C1019   1.409       .  A
C1019      C1020   1.403       .  A
C1019      C1024   1.506       .  S
C1020      C1021   1.406       .  A
C1020      H1025   1.084       .  S
C1021      C1022   1.416       .  A
C1022      C1026   1.507       .  S
C1023      C1028   1.410       .  A
C1023      C1032   1.399       .  A
C1024      H1040   1.110       .  S
C1024      H1041   1.110       .  S
C1024      H1042   1.111       .  S
C1026      H1037   1.111       .  S
C1026      H1038   1.108       .  S
C1026      H1039   1.111       .  S
C1028      C1029   1.404       .  A
C1028      C1033   1.506       .  S
C1029      C1030   1.404       .  A
C1029      H1034   1.084       .  S
C1030      C1031   1.417       .  A
C1031      C1032   1.403       .  A
C1031      C1035   1.507       .  S
C1032      H1036   1.084       .  S
C1033      H1043   1.111       .  S
C1033      H1044   1.110       .  S
C1033      H1045   1.110       .  S
C1035      H1046   1.108       .  S
C1035      H1047   1.110       .  S
C1035      H1048   1.111       .  S
C1049      C1050   1.401       .  A
C1049      C1054   1.401       .  A
C1049      H1059   1.085       .  S
C1050      C1055   1.483       .  S
C1050      C1051   1.412       .  A
C1051      C1052   1.405       .  A
C1051      C1056   1.506       .  S
C1052      C1053   1.405       .  A
C1052      H1057   1.084       .  S
C1053      C1054   1.416       .  A
C1054      C1058   1.507       .  S
C1055      C1060   1.412       .  A
C1055      C1064   1.400       .  A
C1056      H1072   1.110       .  S
C1056      H1073   1.110       .  S
C1056      H1074   1.111       .  S
C1058      H1069   1.110       .  S
C1058      H1070   1.110       .  S
C1058      H1071   1.105   1_565  S
C1060      C1061   1.404       .  A
C1060      C1065   1.507       .  S
C1061      C1062   1.406       .  A
C1061      H1066   1.084       .  S
C1062      C1063   1.418       .  A
C1063      C1064   1.404       .  A
C1063      C1067   1.507       .  S
C1064      H1068   1.084       .  S
C1065      H1075   1.111       .  S
C1065      H1076   1.109       .  S
C1065      H1077   1.110       .  S
C1067      H1078   1.111       .  S
C1067      H1079   1.108       .  S
C1067      H1080   1.111       .  S
C1081      C1082   1.401       .  A
C1081      C1086   1.405       .  A
C1081      H1091   1.085       .  S
C1082      C1087   1.482       .  S
C1082      C1083   1.410       .  A
C1083      C1084   1.404       .  A
C1083      C1088   1.507       .  S
C1084      C1085   1.406       .  A
C1084      H1089   1.084       .  S
C1085      C1086   1.418       .  A
C1086      C1090   1.508       .  S
C1087      C1092   1.408       .  A
C1087      C1096   1.403       .  A
C1088      H1104   1.110       .  S
C1088      H1105   1.110       .  S
C1088      H1106   1.111       .  S
C1090      H1101   1.111       .  S
C1090      H1102   1.110       .  S
C1090      H1103   1.107       .  S
C1092      C1093   1.399       .  A
C1092      C1097   1.507       .  S
C1093      C1094   1.405       .  A
C1093      H1098   1.085       .  S
C1094      C1095   1.418       .  A
C1095      C1096   1.407       .  A
C1095      C1099   1.508       .  S
C1096      H1100   1.084       .  S
C1097      H1107   1.111       .  S
C1097      H1108   1.110       .  S
C1097      H1109   1.110       .  S
C1099      H1110   1.110       .  S
C1099      H1111   1.106       .  S
C1099      H1112   1.111       .  S
C1113      C1114   1.398       .  A
C1113      C1118   1.402       .  A
C1113      H1123   1.084       .  S
C1114      C1119   1.476       .  S
C1114      C1115   1.409       .  A
C1115      C1116   1.403       .  A
C1115      C1120   1.506       .  S
C1116      C1117   1.407       .  A
C1116      H1121   1.084       .  S
C1117      C1118   1.419       .  A
C1118      C1122   1.508       .  S
C1119      C1124   1.409       .  A
C1119      C1128   1.398       .  A
C1120      H1136   1.110       .  S
C1120      H1137   1.110       .  S
C1120      H1138   1.110       .  S
C1122      H1133   1.108       .  S
C1122      H1134   1.111       .  S
C1122      H1135   1.111       .  S
C1124      C1125   1.403       .  A
C1124      C1129   1.507       .  S
C1125      C1126   1.405       .  A
C1125      H1130   1.084       .  S
C1126      C1127   1.420       .  A
C1127      C1128   1.404       .  A
C1127      C1131   1.507       .  S
C1128      H1132   1.084       .  S
C1129      H1139   1.111       .  S
C1129      H1140   1.110       .  S
C1129      H1141   1.110       .  S
C1131      H1142   1.111       .  S
C1131      H1143   1.106       .  S
C1131      H1144   1.110       .  S
C1145      C1146   1.402       .  A
C1145      C1150   1.408       .  A
C1145      H1155   1.084       .  S
C1146      C1151   1.487       .  S
C1146      C1147   1.410       .  A
C1147      C1148   1.404       .  A
C1147      C1152   1.507       .  S
C1148      C1149   1.409       .  A
C1148      H1153   1.084   1_655  S
C1149      C1150   1.420       .  A
C1150      C1154   1.507       .  S
C1151      C1156   1.412       .  A
C1151      C1160   1.401       .  A
C1152      H1168   1.110       .  S
C1152      H1169   1.110       .  S
C1152      H1170   1.111       .  S
C1154      H1165   1.111       .  S
C1154      H1166   1.109       .  S
C1154      H1167   1.110       .  S
C1156      C1157   1.408   1_545  A
C1156      C1161   1.506       .  S
C1157      C1158   1.405       .  A
C1157      H1162   1.084       .  S
C1158      C1159   1.416       .  A
C1159      C1160   1.403   1_565  A
C1159      C1163   1.508       .  S
C1160      H1164   1.085       .  S
C1161      H1171   1.111       .  S
C1161      H1172   1.110       .  S
C1161      H1173   1.110       .  S
C1163      H1174   1.110       .  S
C1163      H1175   1.107       .  S
C1163      H1176   1.111       .  S
C1177      C1178   1.401       .  A
C1177      C1182   1.403       .  A
C1177      H1187   1.084       .  S
C1178      C1183   1.479       .  S
C1178      C1179   1.409       .  A
C1179      C1180   1.401       .  A
C1179      C1184   1.506       .  S
C1180      C1181   1.405       .  A
C1180      H1185   1.084       .  S
C1181      C1182   1.417       .  A
C1182      C1186   1.508       .  S
C1183      C1188   1.407       .  A
C1183      C1192   1.401       .  A
C1184      H1200   1.110       .  S
C1184      H1201   1.110       .  S
C1184      H1202   1.111       .  S
C1186      H1197   1.110       .  S
C1186      H1198   1.110       .  S
C1186      H1199   1.105       .  S
C1188      C1189   1.401       .  A
C1188      C1193   1.507       .  S
C1189      C1190   1.407       .  A
C1189      H1194   1.084       .  S
C1190      C1191   1.422       .  A
C1191      C1192   1.406       .  A
C1191      C1195   1.509       .  S
C1192      H1196   1.085       .  S
C1193      H1203   1.110       .  S
C1193      H1204   1.110       .  S
C1193      H1205   1.110       .  S
C1195      H1206   1.111       .  S
C1195      H1207   1.106       .  S
C1195      H1208   1.110       .  S
C1209      C1210   1.402       .  A
C1209      C1214   1.404       .  A
C1209      H1219   1.084       .  S
C1210      C1215   1.478       .  S
C1210      C1211   1.409       .  A
C1211      C1212   1.399       .  A
C1211      C1216   1.507       .  S
C1212      C1213   1.403       .  A
C1212      H1217   1.085       .  S
C1213      C1214   1.417       .  A
C1214      C1218   1.509       .  S
C1215      C1220   1.407       .  A
C1215      C1224   1.400       .  A
C1216      H1232   1.109       .  S
C1216      H1233   1.111       .  S
C1216      H1234   1.111       .  S
C1218      H1229   1.111       .  S
C1218      H1230   1.110       .  S
C1218      H1231   1.107       .  S
C1220      C1221   1.401       .  A
C1220      C1225   1.507       .  S
C1221      C1222   1.408   1_655  A
C1221      H1226   1.082   1_655  S
C1222      C1223   1.422   1_455  A
C1223      C1224   1.404       .  A
C1223      C1227   1.509       .  S
C1224      H1228   1.084       .  S
C1225      H1235   1.111       .  S
C1225      H1236   1.110       .  S
C1225      H1237   1.111       .  S
C1227      H1238   1.111       .  S
C1227      H1239   1.110       .  S
C1227      H1240   1.110       .  S
C1241      C1242   1.403       .  A
C1241      C1246   1.406       .  A
C1241      H1251   1.084   1_554  S
C1242      C1247   1.485   1_554  S
C1242      C1243   1.411       .  A
C1243      C1244   1.403       .  A
C1243      C1248   1.506       .  S
C1244      C1245   1.403       .  A
C1244      H1249   1.084       .  S
C1245      C1246   1.416       .  A
C1246      C1250   1.507       .  S
C1247      C1252   1.408       .  A
C1247      C1256   1.400       .  A
C1248      H1264   1.110       .  S
C1248      H1265   1.110       .  S
C1248      H1266   1.111       .  S
C1250      H1261   1.110       .  S
C1250      H1262   1.111       .  S
C1250      H1263   1.107       .  S
C1252      C1253   1.405       .  A
C1252      C1257   1.506   1_556  S
C1253      C1254   1.410       .  A
C1253      H1258   1.084       .  S
C1254      C1255   1.422       .  A
C1255      C1256   1.407       .  A
C1255      C1259   1.507       .  S
C1256      H1260   1.084       .  S
C1257      H1267   1.111   1_554  S
C1257      H1268   1.110       .  S
C1257      H1269   1.110       .  S
C1259      H1270   1.111       .  S
C1259      H1271   1.111       .  S
C1259      H1272   1.109       .  S
C1273      C1274   1.401       .  A
C1273      C1278   1.407       .  A
C1273      H1283   1.084       .  S
C1274      C1279   1.486       .  S
C1274      C1275   1.409       .  A
C1275      C1276   1.404       .  A
C1275      C1280   1.507       .  S
C1276      C1277   1.411       .  A
C1276      H1281   1.083       .  S
C1277      C1278   1.421       .  A
C1278      C1282   1.507       .  S
C1279      C1284   1.410       .  A
C1279      C1288   1.405       .  A
C1280      H1296   1.110       .  S
C1280      H1297   1.110       .  S
C1280      H1298   1.111       .  S
C1282      H1293   1.108       .  S
C1282      H1294   1.111       .  S
C1282      H1295   1.110       .  S
C1284      C1285   1.400       .  A
C1284      C1289   1.508       .  S
C1285      C1286   1.405       .  A
C1285      H1290   1.084       .  S
C1286      C1287   1.416       .  A
C1287      C1288   1.411       .  A
C1287      C1291   1.506       .  S
C1288      H1292   1.084       .  S
C1289      H1299   1.111       .  S
C1289      H1300   1.110       .  S
C1289      H1301   1.111       .  S
C1291      H1302   1.111       .  S
C1291      H1303   1.110       .  S
C1291      H1304   1.109       .  S
C1305      C1306   1.399       .  A
C1305      C1310   1.402       .  A
C1305      H1315   1.085       .  S
C1306      C1311   1.487       .  S
C1306      C1307   1.412       .  A
C1307      C1308   1.411       .  A
C1307      C1312   1.505       .  S
C1308      C1309   1.407       .  A
C1308      H1313   1.084       .  S
C1309      C1310   1.418       .  A
C1310      C1314   1.509       .  S
C1311      C1316   1.410       .  A
C1311      C1320   1.403       .  A
C1312      H1328   1.110       .  S
C1312      H1329   1.110       .  S
C1312      H1330   1.111       .  S
C1314      H1325   1.110       .  S
C1314      H1326   1.110       .  S
C1314      H1327   1.105       .  S
C1316      C1317   1.402       .  A
C1316      C1321   1.508       .  S
C1317      C1318   1.408       .  A
C1317      H1322   1.084       .  S
C1318      C1319   1.420       .  A
C1319      C1320   1.410       .  A
C1319      C1323   1.507       .  S
C1320      H1324   1.084       .  S
C1321      H1331   1.111       .  S
C1321      H1332   1.110       .  S
C1321      H1333   1.110       .  S
C1323      H1334   1.110       .  S
C1323      H1335   1.107       .  S
C1323      H1336   1.111       .  S
C1337      C1338   1.400       .  A
C1337      C1342   1.406       .  A
C1337      H1347   1.084       .  S
C1338      C1343   1.485       .  S
C1338      C1339   1.410       .  A
C1339      C1340   1.406       .  A
C1339      C1344   1.506       .  S
C1340      C1341   1.408       .  A
C1340      H1345   1.084       .  S
C1341      C1342   1.420       .  A
C1342      C1346   1.506       .  S
C1343      C1348   1.411       .  A
C1343      C1352   1.403   1_455  A
C1344      H1360   1.110   1_455  S
C1344      H1361   1.110       .  S
C1344      H1362   1.110       .  S
C1346      H1357   1.111       .  S
C1346      H1358   1.109       .  S
C1346      H1359   1.110       .  S
C1348      C1349   1.405   1_455  A
C1348      C1353   1.506       .  S
C1349      C1350   1.403       .  A
C1349      H1354   1.084   1_655  S
C1350      C1351   1.414       .  A
C1351      C1352   1.405       .  A
C1351      C1355   1.507       .  S
C1352      H1356   1.084       .  S
C1353      H1363   1.111       .  S
C1353      H1364   1.110       .  S
C1353      H1365   1.110       .  S
C1355      H1366   1.110       .  S
C1355      H1367   1.108       .  S
C1355      H1368   1.111       .  S
C1369      C1370   1.403       .  A
C1369      C1374   1.408       .  A
C1369      H1379   1.084       .  S
C1370      C1375   1.488       .  S
C1370      C1371   1.411       .  A
C1371      C1372   1.403       .  A
C1371      C1376   1.507       .  S
C1372      C1373   1.406       .  A
C1372      H1377   1.083       .  S
C1373      C1374   1.418       .  A
C1374      C1378   1.506       .  S
C1375      C1380   1.411       .  A
C1375      C1384   1.403       .  A
C1376      H1392   1.110       .  S
C1376      H1393   1.110       .  S
C1376      H1394   1.111       .  S
C1378      H1389   1.110       .  S
C1378      H1390   1.111       .  S
C1378      H1391   1.107       .  S
C1380      C1381   1.403       .  A
C1380      C1385   1.508       .  S
C1381      C1382   1.406       .  A
C1381      H1386   1.084       .  S
C1382      C1383   1.419       .  A
C1383      C1384   1.410       .  A
C1383      C1387   1.507       .  S
C1384      H1388   1.084       .  S
C1385      H1395   1.111       .  S
C1385      H1396   1.110       .  S
C1385      H1397   1.111       .  S
C1387      H1398   1.111       .  S
C1387      H1399   1.111       .  S
C1387      H1400   1.109       .  S
C1401      C1402   1.399       .  A
C1401      C1406   1.402       .  A
C1401      H1411   1.085       .  S
C1402      C1407   1.479       .  S
C1402      C1403   1.411       .  A
C1403      C1404   1.403       .  A
C1403      C1408   1.507       .  S
C1404      C1405   1.404       .  A
C1404      H1409   1.084       .  S
C1405      C1406   1.418       .  A
C1406      C1410   1.508       .  S
C1407      C1412   1.409       .  A
C1407      C1416   1.400       .  A
C1408      H1424   1.110       .  S
C1408      H1425   1.111       .  S
C1408      H1426   1.111       .  S
C1410      H1421   1.111       .  S
C1410      H1422   1.110       .  S
C1410      H1423   1.106       .  S
C1412      C1413   1.402       .  A
C1412      C1417   1.507       .  S
C1413      C1414   1.406       .  A
C1413      H1418   1.084       .  S
C1414      C1415   1.420       .  A
C1415      C1416   1.403       .  A
C1415      C1419   1.509       .  S
C1416      H1420   1.085       .  S
C1417      H1427   1.111       .  S
C1417      H1428   1.110       .  S
C1417      H1429   1.110       .  S
C1419      H1430   1.110       .  S
C1419      H1431   1.105       .  S
C1419      H1432   1.111       .  S
C1433      C1434   1.399       .  A
C1433      C1438   1.401   1_545  A
C1433      H1443   1.085       .  S
C1434      C1439   1.477       .  S
C1434      C1435   1.410       .  A
C1435      C1436   1.404   1_545  A
C1435      C1440   1.506       .  S
C1436      C1437   1.404       .  A
C1436      H1441   1.084       .  S
C1437      C1438   1.418       .  A
C1438      C1442   1.509       .  S
C1439      C1444   1.409       .  A
C1439      C1448   1.398       .  A
C1440      H1456   1.110       .  S
C1440      H1457   1.110       .  S
C1440      H1458   1.111       .  S
C1442      H1453   1.111       .  S
C1442      H1454   1.110       .  S
C1442      H1455   1.107       .  S
C1444      C1445   1.404       .  A
C1444      C1449   1.506       .  S
C1445      C1446   1.407       .  A
C1445      H1450   1.084       .  S
C1446      C1447   1.420       .  A
C1447      C1448   1.402       .  A
C1447      C1451   1.508       .  S
C1448      H1452   1.084       .  S
C1449      H1459   1.111       .  S
C1449      H1460   1.110       .  S
C1449      H1461   1.110       .  S
C1451      H1462   1.109       .  S
C1451      H1463   1.110       .  S
C1451      H1464   1.111       .  S
C1465      C1466   1.400       .  A
C1465      C1470   1.407       .  A
C1465      H1475   1.085       .  S
C1466      C1471   1.491       .  S
C1466      C1467   1.412       .  A
C1467      C1468   1.409       .  A
C1467      C1472   1.507       .  S
C1468      C1469   1.408       .  A
C1468      H1473   1.084       .  S
C1469      C1470   1.423       .  A
C1470      C1474   1.508       .  S
C1471      C1476   1.412       .  A
C1471      C1480   1.405       .  A
C1472      H1488   1.110       .  S
C1472      H1489   1.110       .  S
C1472      H1490   1.111       .  S
C1474      H1485   1.110       .  S
C1474      H1486   1.111       .  S
C1474      H1487   1.106       .  S
C1476      C1477   1.404       .  A
C1476      C1481   1.506       .  S
C1477      C1478   1.404       .  A
C1477      H1482   1.084       .  S
C1478      C1479   1.416       .  A
C1479      C1480   1.408       .  A
C1479      C1483   1.506       .  S
C1480      H1484   1.084       .  S
C1481      H1491   1.111       .  S
C1481      H1492   1.110       .  S
C1481      H1493   1.110       .  S
C1483      H1494   1.111       .  S
C1483      H1495   1.108       .  S
C1483      H1496   1.110       .  S
C1497      C1498   1.401       .  A
C1497      C1502   1.406       .  A
C1497      H1507   1.084       .  S
C1498      C1503   1.484       .  S
C1498      C1499   1.410       .  A
C1499      C1500   1.405       .  A
C1499      C1504   1.507       .  S
C1500      C1501   1.407       .  A
C1500      H1505   1.084       .  S
C1501      C1502   1.419       .  A
C1502      C1506   1.508       .  S
C1503      C1508   1.411   1_565  A
C1503      C1512   1.401       .  A
C1504      H1520   1.110       .  S
C1504      H1521   1.110   1_565  S
C1504      H1522   1.111       .  S
C1506      H1517   1.109       .  S
C1506      H1518   1.111       .  S
C1506      H1519   1.111       .  S
C1508      C1509   1.405       .  A
C1508      C1513   1.506       .  S
C1509      C1510   1.405       .  A
C1509      H1514   1.084       .  S
C1510      C1511   1.419   1_545  A
C1511      C1512   1.404       .  A
C1511      C1515   1.510       .  S
C1512      H1516   1.085       .  S
C1513      H1523   1.111       .  S
C1513      H1524   1.110       .  S
C1513      H1525   1.109       .  S
C1515      H1526   1.111       .  S
C1515      H1527   1.106       .  S
C1515      H1528   1.110       .  S
C1529      C1530   1.396       .  A
C1529      C1534   1.399       .  A
C1529      H1539   1.085       .  S
C1530      C1535   1.473       .  S
C1530      C1531   1.406       .  A
C1531      C1532   1.399       .  A
C1531      C1536   1.507       .  S
C1532      C1533   1.411       .  A
C1532      H1537   1.083       .  S
C1533      C1534   1.426       .  A
C1534      C1538   1.509       .  S
C1535      C1540   1.412       .  A
C1535      C1544   1.400       .  A
C1536      H1552   1.109       .  S
C1536      H1553   1.110       .  S
C1536      H1554   1.111       .  S
C1538      H1549   1.111       .  S
C1538      H1550   1.109       .  S
C1538      H1551   1.110       .  S
C1540      C1541   1.400       .  A
C1540      C1545   1.507       .  S
C1541      C1542   1.400       .  A
C1541      H1546   1.084       .  S
C1542      C1543   1.413       .  A
C1543      C1544   1.399       .  A
C1543      C1547   1.507   1_455  S
C1544      H1548   1.084       .  S
C1545      H1555   1.111       .  S
C1545      H1556   1.109       .  S
C1545      H1557   1.110       .  S
C1547      H1558   1.109       .  S
C1547      H1559   1.109       .  S
C1547      H1560   1.111       .  S
C1561      C1562   1.400       .  A
C1561      C1566   1.402       .  A
C1561      H1571   1.085       .  S
C1562      C1567   1.484       .  S
C1562      C1563   1.412       .  A
C1563      C1564   1.407       .  A
C1563      C1568   1.505       .  S
C1564      C1565   1.403       .  A
C1564      H1569   1.084       .  S
C1565      C1566   1.417       .  A
C1566      C1570   1.509       .  S
C1567      C1572   1.411       .  A
C1567      C1576   1.398       .  A
C1568      H1584   1.110       .  S
C1568      H1585   1.110       .  S
C1568      H1586   1.111       .  S
C1570      H1581   1.110       .  S
C1570      H1582   1.111       .  S
C1570      H1583   1.107       .  S
C1572      C1573   1.408       .  A
C1572      C1577   1.506       .  S
C1573      C1574   1.409       .  A
C1573      H1578   1.084       .  S
C1574      C1575   1.422       .  A
C1575      C1576   1.404       .  A
C1575      C1579   1.509       .  S
C1576      H1580   1.085       .  S
C1577      H1587   1.111       .  S
C1577      H1588   1.110       .  S
C1577      H1589   1.110       .  S
C1579      H1590   1.111       .  S
C1579      H1591   1.108       .  S
C1579      H1592   1.110       .  S
C1593      C1594   1.401       .  A
C1593      C1598   1.402       .  A
C1593      H1603   1.085       .  S
C1594      C1599   1.482       .  S
C1594      C1595   1.410       .  A
C1595      C1596   1.406       .  A
C1595      C1600   1.505       .  S
C1596      C1597   1.404       .  A
C1596      H1601   1.084       .  S
C1597      C1598   1.417       .  A
C1598      C1602   1.509       .  S
C1599      C1604   1.410       .  A
C1599      C1608   1.400       .  A
C1600      H1616   1.110       .  S
C1600      H1617   1.110       .  S
C1600      H1618   1.111       .  S
C1602      H1613   1.110       .  S
C1602      H1614   1.111       .  S
C1602      H1615   1.106       .  S
C1604      C1605   1.403       .  A
C1604      C1609   1.508       .  S
C1605      C1606   1.407       .  A
C1605      H1610   1.084       .  S
C1606      C1607   1.420       .  A
C1607      C1608   1.406       .  A
C1607      C1611   1.507       .  S
C1608      H1612   1.084       .  S
C1609      H1619   1.111       .  S
C1609      H1620   1.110       .  S
C1609      H1621   1.110       .  S
C1611      H1622   1.110       .  S
C1611      H1623   1.107       .  S
C1611      H1624   1.110       .  S
C1625      C1626   1.397       .  A
C1625      C1630   1.401       .  A
C1625      H1635   1.084       .  S
C1626      C1631   1.472       .  S
C1626      C1627   1.408       .  A
C1627      C1628   1.400       .  A
C1627      C1632   1.507       .  S
C1628      C1629   1.407       .  A
C1628      H1633   1.084       .  S
C1629      C1630   1.422       .  A
C1630      C1634   1.510       .  S
C1631      C1636   1.408       .  A
C1631      C1640   1.398       .  A
C1632      H1648   1.110       .  S
C1632      H1649   1.110       .  S
C1632      H1650   1.111       .  S
C1634      H1645   1.109       .  S
C1634      H1646   1.111       .  S
C1634      H1647   1.111       .  S
C1636      C1637   1.401       .  A
C1636      C1641   1.507       .  S
C1637      C1638   1.405       .  A
C1637      H1642   1.084       .  S
C1638      C1639   1.417       .  A
C1639      C1640   1.401       .  A
C1639      C1643   1.507       .  S
C1640      H1644   1.084       .  S
C1641      H1651   1.111       .  S
C1641      H1652   1.110       .  S
C1641      H1653   1.111       .  S
C1643      H1654   1.108   1_565  S
C1643      H1655   1.108       .  S
C1643      H1656   1.111       .  S
C1657      C1658   1.402       .  A
C1657      C1662   1.405       .  A
C1657      H1667   1.084       .  S
C1658      C1663   1.483       .  S
C1658      C1659   1.410       .  A
C1659      C1660   1.404       .  A
C1659      C1664   1.506       .  S
C1660      C1661   1.406       .  A
C1660      H1665   1.084       .  S
C1661      C1662   1.416       .  A
C1662      C1666   1.508       .  S
C1663      C1668   1.411       .  A
C1663      C1672   1.399       .  A
C1664      H1680   1.110       .  S
C1664      H1681   1.110       .  S
C1664      H1682   1.111       .  S
C1666      H1677   1.111       .  S
C1666      H1678   1.110       .  S
C1666      H1679   1.106       .  S
C1668      C1669   1.406       .  A
C1668      C1673   1.506       .  S
C1669      C1670   1.406       .  A
C1669      H1674   1.084       .  S
C1670      C1671   1.420       .  A
C1671      C1672   1.404       .  A
C1671      C1675   1.507       .  S
C1672      H1676   1.084       .  S
C1673      H1683   1.111       .  S
C1673      H1684   1.110       .  S
C1673      H1685   1.110       .  S
C1675      H1686   1.107       .  S
C1675      H1687   1.110       .  S
C1675      H1688   1.111       .  S
C1689      C1690   1.398       .  A
C1689      C1694   1.403       .  A
C1689      H1699   1.084       .  S
C1690      C1695   1.482       .  S
C1690      C1691   1.408       .  A
C1691      C1692   1.405       .  A
C1691      C1696   1.506       .  S
C1692      C1693   1.411       .  A
C1692      H1697   1.084   1_455  S
C1693      C1694   1.425       .  A
C1694      C1698   1.508       .  S
C1695      C1700   1.412       .  A
C1695      C1704   1.400       .  A
C1696      H1712   1.110       .  S
C1696      H1713   1.110       .  S
C1696      H1714   1.111       .  S
C1698      H1709   1.111       .  S
C1698      H1710   1.110   1_455  S
C1698      H1711   1.109       .  S
C1700      C1701   1.404       .  A
C1700      C1705   1.507       .  S
C1701      C1702   1.404       .  A
C1701      H1706   1.084       .  S
C1702      C1703   1.420       .  A
C1703      C1704   1.402       .  A
C1703      C1707   1.508   1_565  S
C1704      H1708   1.085       .  S
C1705      H1715   1.111       .  S
C1705      H1716   1.110       .  S
C1705      H1717   1.110       .  S
C1707      H1718   1.111       .  S
C1707      H1719   1.103       .  S
C1707      H1720   1.110       .  S
C1721      C1722   1.401       .  A
C1721      C1726   1.401       .  A
C1721      H1731   1.085       .  S
C1722      C1727   1.477       .  S
C1722      C1723   1.410       .  A
C1723      C1724   1.401       .  A
C1723      C1728   1.508       .  S
C1724      C1725   1.406       .  A
C1724      H1729   1.084       .  S
C1725      C1726   1.417       .  A
C1726      C1730   1.508       .  S
C1727      C1732   1.409       .  A
C1727      C1736   1.401       .  A
C1728      H1744   1.109       .  S
C1728      H1745   1.110       .  S
C1728      H1746   1.111       .  S
C1730      H1741   1.110       .  S
C1730      H1742   1.111       .  S
C1730      H1743   1.106       .  S
C1732      C1733   1.398       .  A
C1732      C1737   1.508       .  S
C1733      C1734   1.406       .  A
C1733      H1738   1.085       .  S
C1734      C1735   1.417       .  A
C1735      C1736   1.402       .  A
C1735      C1739   1.509       .  S
C1736      H1740   1.085       .  S
C1737      H1747   1.111       .  S
C1737      H1748   1.109       .  S
C1737      H1749   1.110       .  S
C1739      H1750   1.111       .  S
C1739      H1751   1.105       .  S
C1739      H1752   1.111       .  S
C1753      C1754   1.403       .  A
C1753      C1758   1.409       .  A
C1753      H1763   1.084       .  S
C1754      C1759   1.486       .  S
C1754      C1755   1.410       .  A
C1755      C1756   1.403       .  A
C1755      C1760   1.508       .  S
C1756      C1757   1.407       .  A
C1756      H1761   1.084       .  S
C1757      C1758   1.421       .  A
C1758      C1762   1.507       .  S
C1759      C1764   1.411       .  A
C1759      C1768   1.400       .  A
C1760      H1776   1.110       .  S
C1760      H1777   1.109       .  S
C1760      H1778   1.111       .  S
C1762      H1773   1.111       .  S
C1762      H1774   1.110       .  S
C1762      H1775   1.107       .  S
C1764      C1765   1.408       .  A
C1764      C1769   1.505       .  S
C1765      C1766   1.407       .  A
C1765      H1770   1.084       .  S
C1766      C1767   1.420       .  A
C1767      C1768   1.403       .  A
C1767      C1771   1.509       .  S
C1768      H1772   1.085       .  S
C1769      H1779   1.111       .  S
C1769      H1780   1.110       .  S
C1769      H1781   1.110       .  S
C1771      H1782   1.110       .  S
C1771      H1783   1.104       .  S
C1771      H1784   1.111       .  S
C1785      C1786   1.401       .  A
C1785      C1790   1.402       .  A
C1785      H1795   1.085       .  S
C1786      C1791   1.479       .  S
C1786      C1787   1.409       .  A
C1787      C1788   1.402       .  A
C1787      C1792   1.506       .  S
C1788      C1789   1.404       .  A
C1788      H1793   1.084       .  S
C1789      C1790   1.416       .  A
C1790      C1794   1.507       .  S
C1791      C1796   1.410       .  A
C1791      C1800   1.399       .  A
C1792      H1808   1.110       .  S
C1792      H1809   1.110       .  S
C1792      H1810   1.111       .  S
C1794      H1805   1.111       .  S
C1794      H1806   1.110       .  S
C1794      H1807   1.106       .  S
C1796      C1797   1.405       .  A
C1796      C1801   1.507       .  S
C1797      C1798   1.407       .  A
C1797      H1802   1.084       .  S
C1798      C1799   1.419       .  A
C1799      C1800   1.403       .  A
C1799      C1803   1.507       .  S
C1800      H1804   1.084       .  S
C1801      H1811   1.111       .  S
C1801      H1812   1.110       .  S
C1801      H1813   1.110       .  S
C1803      H1814   1.111       .  S
C1803      H1815   1.109       .  S
C1803      H1816   1.110       .  S
C1817      C1818   1.402       .  A
C1817      C1822   1.405       .  A
C1817      H1827   1.084       .  S
C1818      C1823   1.481       .  S
C1818      C1819   1.410       .  A
C1819      C1820   1.402   1_655  A
C1819      C1824   1.507       .  S
C1820      C1821   1.404       .  A
C1820      H1825   1.084       .  S
C1821      C1822   1.418   1_455  A
C1822      C1826   1.509   1_655  S
C1823      C1828   1.410       .  A
C1823      C1832   1.402   1_545  A
C1824      H1840   1.110       .  S
C1824      H1841   1.110       .  S
C1824      H1842   1.111       .  S
C1826      H1837   1.111   1_455  S
C1826      H1838   1.110       .  S
C1826      H1839   1.107       .  S
C1828      C1829   1.402   1_545  A
C1828      C1833   1.507       .  S
C1829      C1830   1.405       .  A
C1829      H1834   1.084       .  S
C1830      C1831   1.419       .  A
C1831      C1832   1.406       .  A
C1831      C1835   1.509       .  S
C1832      H1836   1.084       .  S
C1833      H1843   1.111       .  S
C1833      H1844   1.110       .  S
C1833      H1845   1.110       .  S
C1835      H1846   1.110       .  S
C1835      H1847   1.106       .  S
C1835      H1848   1.111       .  S
C1849      C1850   1.402       .  A
C1849      C1854   1.405       .  A
C1849      H1859   1.084       .  S
C1850      C1855   1.483       .  S
C1850      C1851   1.411       .  A
C1851      C1852   1.403       .  A
C1851      C1856   1.507       .  S
C1852      C1853   1.404       .  A
C1852      H1857   1.084       .  S
C1853      C1854   1.418       .  A
C1854      C1858   1.509       .  S
C1855      C1860   1.412       .  A
C1855      C1864   1.398       .  A
C1856      H1872   1.110       .  S
C1856      H1873   1.110       .  S
C1856      H1874   1.111       .  S
C1858      H1869   1.110       .  S
C1858      H1870   1.110       .  S
C1858      H1871   1.106       .  S
C1860      C1861   1.406       .  A
C1860      C1865   1.506       .  S
C1861      C1862   1.406       .  A
C1861      H1866   1.084       .  S
C1862      C1863   1.418       .  A
C1863      C1864   1.402       .  A
C1863      C1867   1.505       .  S
C1864      H1868   1.084       .  S
C1865      H1875   1.111       .  S
C1865      H1876   1.110       .  S
C1865      H1877   1.110       .  S
C1867      H1878   1.111       .  S
C1867      H1879   1.106       .  S
C1867      H1880   1.111       .  S
C1881      C1882   1.398       .  A
C1881      C1886   1.402       .  A
C1881      H1891   1.084       .  S
C1882      C1887   1.475       .  S
C1882      C1883   1.409       .  A
C1883      C1884   1.402       .  A
C1883      C1888   1.507       .  S
C1884      C1885   1.406       .  A
C1884      H1889   1.084       .  S
C1885      C1886   1.419       .  A
C1886      C1890   1.507       .  S
C1887      C1892   1.409       .  A
C1887      C1896   1.400       .  A
C1888      H1904   1.110       .  S
C1888      H1905   1.109       .  S
C1888      H1906   1.111       .  S
C1890      H1901   1.110       .  S
C1890      H1902   1.111       .  S
C1890      H1903   1.110       .  S
C1892      C1893   1.400       .  A
C1892      C1897   1.508       .  S
C1893      C1894   1.404   1_655  A
C1893      H1898   1.084       .  S
C1894      C1895   1.418       .  A
C1895      C1896   1.403   1_455  A
C1895      C1899   1.508       .  S
C1896      H1900   1.085       .  S
C1897      H1907   1.111       .  S
C1897      H1908   1.110       .  S
C1897      H1909   1.109       .  S
C1899      H1910   1.110       .  S
C1899      H1911   1.105       .  S
C1899      H1912   1.110       .  S
C1913      C1914   1.401       .  A
C1913      C1918   1.403       .  A
C1913      H1923   1.085       .  S
C1914      C1919   1.485       .  S
C1914      C1915   1.411       .  A
C1915      C1916   1.406       .  A
C1915      C1920   1.506       .  S
C1916      C1917   1.405       .  A
C1916      H1921   1.084       .  S
C1917      C1918   1.419       .  A
C1918      C1922   1.510       .  S
C1919      C1924   1.409       .  A
C1919      C1928   1.400       .  A
C1920      H1936   1.110       .  S
C1920      H1937   1.110       .  S
C1920      H1938   1.111       .  S
C1922      H1933   1.110       .  S
C1922      H1934   1.111       .  S
C1922      H1935   1.106       .  S
C1924      C1925   1.404       .  A
C1924      C1929   1.506       .  S
C1925      C1926   1.409       .  A
C1925      H1930   1.082       .  S
C1926      C1927   1.424       .  A
C1927      C1928   1.407       .  A
C1927      C1931   1.508       .  S
C1928      H1932   1.084       .  S
C1929      H1939   1.111       .  S
C1929      H1940   1.110       .  S
C1929      H1941   1.110       .  S
C1931      H1942   1.110       .  S
C1931      H1943   1.109       .  S
C1931      H1944   1.111       .  S
