geometry optimzed in LAMMPS
_audit_creation_date              2020-12-01 
_audit_creation_method            'lammps2cif' 
_symmetry_space_group_name_H-M    'P1' 
_symmetry_Int_Tables_number       1 
_symmetry_cell_setting            triclinic 
loop_ 
_symmetry_equiv_pos_as_xyz 
  x,y,z 
_cell_length_a                    44.31448089 
_cell_length_b                    44.19690128662291 
_cell_length_c                    32.84623271811247 
_cell_angle_alpha                 89.87919021229776 
_cell_angle_beta                  89.92683874555418 
_cell_angle_gamma                 90.01619994909274 
loop_ 
_atom_site_label 
_atom_site_type_symbol 
_atom_site_fract_x 
_atom_site_fract_y 
_atom_site_fract_z 
_atom_site_charge 
Fe1        Fe  0.81113227  0.77003462  0.32317296     1.65800
Fe2        Fe  0.86830316  0.79874858  0.37680981     1.73200
Fe3        Fe  0.83947814  0.83813318  0.29771014     1.54400
O4          O  0.83047638  0.81388079  0.24429244    -0.80400
O5          O  0.84910616  0.83589015  0.40472826    -0.78700
O6          O  0.82065122  0.76632722  0.26362215    -0.82900
O7          O  0.77569897  0.79855785  0.30669353    -0.77700
O8          O  0.88450338  0.83218505  0.28614827    -0.79500
O9          O  0.84371634  0.76631705  0.41124304    -0.82200
C10         C  0.77304761  0.82627925  0.29645314     0.98500
C11         C  0.82428973  0.78630647  0.23645671     1.06000
O12         O  0.83928139  0.80245023  0.33187233    -1.11200
O13         O  0.88793582  0.76317986  0.34697412    -0.73700
O14         O  0.84552569  0.73752323  0.33325359    -0.77100
O15         O  0.79366604  0.84581386  0.30258543    -0.77800
C16         C  0.87437926  0.73936789  0.33546511     0.97400
O17         O  0.80011335  0.77341253  0.38303355    -0.75800
O18         O  0.89979137  0.82745392  0.34995542    -0.81000
C19         C  0.85210455  0.86191079  0.38811702     1.00100
C20         C  0.90475509  0.83410535  0.31293331     1.06000
O21         O  0.84967176  0.86576563  0.34933061    -0.76600
C22         C  0.81694031  0.75739902  0.40498971     1.04300
Fe23       Fe  0.67887437  0.77626402  0.18085124     1.65800
Fe24       Fe  0.61981147  0.80613878  0.13418489     1.73200
Fe25       Fe  0.65732553  0.84783751  0.20415936     1.54400
O26         O  0.66548911  0.82311125  0.25857201    -0.80400
O27         O  0.63605361  0.84211700  0.10111053    -0.78700
O28         O  0.66667966  0.77439058  0.23951843    -0.82900
O29         O  0.71585313  0.80179595  0.19937053    -0.77700
O30         O  0.61283101  0.84997531  0.22033677    -0.79500
O31         O  0.64403848  0.77635622  0.09803793    -0.82200
C32         C  0.72138110  0.82959322  0.20563020     0.98500
C33         C  0.66705447  0.79471090  0.26661616     1.06000
O34         O  0.65238829  0.81069900  0.17299711    -1.11200
O35         O  0.60252996  0.77020617  0.16661541    -0.73700
O36         O  0.64543198  0.74430077  0.16842465    -0.77100
O37         O  0.70330462  0.85029205  0.19457430    -0.77800
C38         C  0.61681619  0.74558803  0.17098804     0.97400
O39         O  0.69126676  0.77643250  0.12076258    -0.75800
O40         O  0.58995768  0.83422514  0.16418425    -0.81000
C41         C  0.64080049  0.86887353  0.11383340     1.00100
C42         C  0.58966485  0.84747441  0.19832728     1.06000
O43         O  0.64788769  0.87468729  0.15112436    -0.76600
C44         C  0.67146681  0.76826152  0.09516945     1.04300
Fe45       Fe  0.30940051  0.78127911  0.44465630     1.65800
Fe46       Fe  0.37199870  0.80052728  0.38976874     1.73200
Fe47       Fe  0.34223952  0.84931735  0.45784806     1.54400
O48         O  0.29606814  0.85037921  0.46925564    -0.80400
O49         O  0.40781525  0.81497214  0.42539190    -0.78700
O50         O  0.27555010  0.81264748  0.43436869    -0.82900
O51         O  0.30877307  0.79479278  0.50388369    -0.77700
O52         O  0.34000670  0.87362720  0.40214326    -0.79500
O53         O  0.37819829  0.75747884  0.41351890    -0.82200
C54         C  0.33194936  0.80338741  0.02240587     0.98500
C55         C  0.27334308  0.83445812  0.45959713     1.06000
O56         O  0.34081299  0.81062372  0.42934104    -1.11200
O57         O  0.34122276  0.78392997  0.34920365    -0.73700
O58         O  0.30581278  0.76202335  0.38753205    -0.77100
O59         O  0.34809379  0.82528546  0.00935248    -0.77800
C60         C  0.32010004  0.76501036  0.35436169     0.97400
O61         O  0.34140573  0.74911672  0.45905060    -0.75800
O62         O  0.36835965  0.84309652  0.36260823    -0.81000
C63         C  0.41020937  0.83951185  0.44486989     1.00100
C64         C  0.35549564  0.86846674  0.36954738     1.06000
O65         O  0.38766868  0.85503782  0.45502492    -0.76600
C66         C  0.36580980  0.74165785  0.44136647     1.04300
Fe67       Fe  0.18112998  0.77505212  0.05763193     1.65800
Fe68       Fe  0.12168880  0.78920667  0.11976056     1.73200
Fe69       Fe  0.14570790  0.84225150  0.05297716     1.54400
O70         O  0.19207609  0.84544413  0.03749175    -0.80400
O71         O  0.08421400  0.80076499  0.08624702    -0.78700
O72         O  0.21465618  0.80657915  0.06782397    -0.82900
O73         O  0.17830531  0.79119688  0.99953415    -0.77700
O74         O  0.14984734  0.86407024  0.10974229    -0.79500
O75         O  0.11728163  0.74614213  0.09557011    -0.82200
C76         C  0.16265920  0.80246910  0.48536426     0.98500
C77         C  0.21566743  0.82964232  0.04449655     1.06000
O78         O  0.15002021  0.80244797  0.07803899    -1.11200
O79         O  0.15558106  0.77458798  0.15688806    -0.73700
O80         O  0.18788517  0.75367428  0.11307272    -0.77100
O81         O  0.14401228  0.82204200  0.49851446    -0.77800
C82         C  0.17629133  0.75592782  0.14822788     0.97400
O83         O  0.14922827  0.74301940  0.04307713    -0.75800
O84         O  0.12281942  0.83164544  0.14812618    -0.81000
C85         C  0.07864790  0.82579161  0.06935671     1.00100
C86         C  0.13473646  0.85765429  0.14212858     1.06000
O87         O  0.09938399  0.84451695  0.06049282    -0.76600
C88         C  0.12711345  0.73309017  0.06370573     1.04300
Fe89       Fe  0.32447194  0.73235240  0.19054849     1.65800
Fe90       Fe  0.38133879  0.70461601  0.13726400     1.73200
Fe91       Fe  0.34585224  0.66002102  0.20564537     1.54400
O92         O  0.33650993  0.68184024  0.26227781    -0.80400
O93         O  0.36374441  0.67044113  0.10205240    -0.78700
O94         O  0.33955630  0.73124256  0.24789953    -0.82900
O95         O  0.28830819  0.70555082  0.20933815    -0.77700
O96         O  0.39074324  0.65846554  0.22086348    -0.79500
O97         O  0.35595428  0.73651973  0.10562046    -0.82200
C98         C  0.28241290  0.67740367  0.21056954     0.98500
C99         C  0.33582160  0.70980597  0.27286719     1.06000
O100        O  0.35013826  0.69839953  0.17749172    -1.11200
O101        O  0.40004053  0.73833830  0.17210287    -0.73700
O102        O  0.35753390  0.76448707  0.17831265    -0.77100
O103        O  0.29995526  0.65797109  0.19478605    -0.77800
C104        C  0.38614094  0.76269162  0.17972109     0.97400
O105        O  0.30961158  0.73531355  0.13184649    -0.75800
O106        O  0.41156626  0.67459240  0.16316561    -0.81000
C107        C  0.36119547  0.64302278  0.11350333     1.00100
C108        C  0.41310197  0.66088539  0.19707115     1.06000
O109        O  0.35577382  0.63572165  0.15083132    -0.76600
C110        C  0.32837961  0.74456386  0.10540998     1.04300
Fe111      Fe  0.18657310  0.72623706  0.31967152     1.65800
Fe112      Fe  0.12102351  0.70443645  0.36356594     1.73200
Fe113      Fe  0.15996519  0.65564843  0.30296374     1.54400
O114        O  0.15594912  0.67710991  0.24602019    -0.80400
O115        O  0.13209975  0.66656811  0.39816033    -0.78700
O116        O  0.18421944  0.71841501  0.25870337    -0.82900
O117        O  0.22177791  0.69648865  0.32568960    -0.77700
O118        O  0.11501537  0.64394501  0.30269900    -0.79500
O119        O  0.14464782  0.73177805  0.40226742    -0.82200
C120        C  0.22644517  0.67619052  0.29955996     0.98500
C121        C  0.16992072  0.70119726  0.23450912     1.06000
O122        O  0.15562996  0.69555836  0.32865153    -1.11200
O123        O  0.10953355  0.74251454  0.33137831    -0.73700
O124        O  0.15484874  0.76035973  0.31304374    -0.77100
O125        O  0.20602535  0.65740573  0.29092817    -0.77800
C126        C  0.12651496  0.76339986  0.31778765     0.97400
O127        O  0.19161250  0.73685293  0.37951887    -0.75800
O128        O  0.08939733  0.68126298  0.33045755    -0.81000
C129        C  0.14918699  0.64328644  0.39521775     1.00100
C130        C  0.09040354  0.65643508  0.31186351     1.06000
O131        O  0.16345759  0.63602650  0.36220441    -0.76600
C132        C  0.17096946  0.74253402  0.40479324     1.04300
Fe133      Fe  0.97608127  0.43297543  0.43710045     1.65800
Fe134      Fe  0.95722754  0.37447849  0.49726313     1.73200
Fe135      Fe  0.90840013  0.40022401  0.42632511     1.54400
O136        O  0.90803613  0.44736150  0.41204653    -0.80400
O137        O  0.94561504  0.33738802  0.46315459    -0.78700
O138        O  0.94538608  0.46682161  0.44884005    -0.82900
O139        O  0.95974777  0.43272525  0.37954249    -0.77700
O140        O  0.88434105  0.40566908  0.48103734    -0.79500
O141        O  0.00104540  0.36838425  0.47571281    -0.82200
C142        C  0.95309841  0.40933861  0.36001884     0.98500
C143        C  0.92430094  0.46997946  0.42278638     1.06000
O144        O  0.94686718  0.40289539  0.45487618    -1.11200
O145        O  0.96882511  0.41334703  0.03514925    -0.73700
O146        O  0.99705243  0.43746481  0.49275345    -0.77100
O147        O  0.93261555  0.39154326  0.37281705    -0.77800
C148        C  0.98896779  0.43281602  0.02750550     0.97400
O149        O  0.00653530  0.39938860  0.42227108    -0.75800
O150        O  0.91299028  0.38066571  0.02291613    -0.81000
C151        C  0.92102633  0.33242783  0.44505198     1.00100
C152        C  0.88742894  0.39252654  0.01431209     1.06000
O153        O  0.90351138  0.35369202  0.43404897    -0.76600
C154        C  0.01503565  0.37698637  0.44376171     1.04300
Fe155      Fe  0.97772616  0.57184544  0.31301129     1.65800
Fe156      Fe  0.94824573  0.62865434  0.26043862     1.73200
Fe157      Fe  0.90453311  0.59001717  0.32731949     1.54400
O158        O  0.90486962  0.54374503  0.31707164    -0.80400
O159        O  0.91760726  0.65833556  0.28788990    -0.78700
O160        O  0.95249648  0.53455313  0.33303554    -0.82900
O161        O  0.97617402  0.58721076  0.36995801    -0.77700
O162        O  0.87999050  0.59880485  0.27218211    -0.79500
O163        O  0.98229861  0.64777210  0.29452456    -0.82200
C164        C  0.95473656  0.58323772  0.39474837     0.98500
C165        C  0.92475746  0.52717446  0.33376413     1.06000
O166        O  0.94289225  0.59656772  0.29993970    -1.11200
O167        O  0.98005521  0.60336883  0.22781134    -0.73700
O168        O  0.98068819  0.55682542  0.25445255    -0.77100
O169        O  0.92684076  0.58235455  0.38402914    -0.77800
C170        C  0.98842828  0.57572829  0.22723552     0.97400
O171        O  0.00919280  0.60570377  0.29997795    -0.75800
O172        O  0.91426989  0.61121254  0.22463854    -0.81000
C173        C  0.90203418  0.65793424  0.32049616     1.00100
C174        C  0.88713082  0.60614643  0.23535762     1.06000
O175        O  0.89966884  0.63462649  0.34264065    -0.76600
C176        C  0.00718804  0.63440926  0.30054304     1.04300
Fe177      Fe  0.52439190  0.57240488  0.19140611     1.65800
Fe178      Fe  0.55399864  0.63083992  0.24034506     1.73200
Fe179      Fe  0.59672881  0.59394770  0.17104214     1.54400
O180        O  0.59858414  0.54732013  0.17738741    -0.80400
O181        O  0.58330736  0.66092141  0.21312233    -0.78700
O182        O  0.54987071  0.53488866  0.17541445    -0.82900
O183        O  0.52442796  0.58358663  0.13242842    -0.77700
O184        O  0.62216757  0.60210679  0.22591702    -0.79500
O185        O  0.51985639  0.64930433  0.20628028    -0.82200
C186        C  0.54556742  0.58365617  0.10654043     0.98500
C187        C  0.57741403  0.52916505  0.16795022     1.06000
O188        O  0.55899029  0.59849636  0.20098007    -1.11200
O189        O  0.52251909  0.60699107  0.27411419    -0.73700
O190        O  0.52209767  0.55980591  0.25121398    -0.77100
O191        O  0.57353048  0.58664764  0.11569387    -0.77800
C192        C  0.51370424  0.57972109  0.27637778     0.97400
O193        O  0.49295639  0.60698051  0.20150499    -0.75800
O194        O  0.58853117  0.61343023  0.27493550    -0.81000
C195        C  0.59653085  0.66207126  0.17902007     1.00100
C196        C  0.61552049  0.60864991  0.26325141     1.06000
O197        O  0.59945931  0.63914511  0.15648655    -0.76600
C198        C  0.49513560  0.63571382  0.20017304     1.04300
Fe199      Fe  0.52714151  0.43289814  0.05442262     1.65800
Fe200      Fe  0.55625745  0.37543025  0.00497445     1.73200
Fe201      Fe  0.59915658  0.41263820  0.07351245     1.54400
O202        O  0.60119256  0.45873767  0.06211229    -0.80400
O203        O  0.58452937  0.34540269  0.03428696    -0.78700
O204        O  0.55316199  0.46946339  0.07488144    -0.82900
O205        O  0.52784642  0.41571773  0.11050910    -0.77700
O206        O  0.62503690  0.40125953  0.02021420    -0.79500
O207        O  0.52112373  0.35753613  0.03830477    -0.82200
C208        C  0.54747288  0.42259960  0.13657194     0.98500
C209        C  0.58110474  0.47593101  0.07738383     1.06000
O210        O  0.56169855  0.40775775  0.04330388    -1.11200
O211        O  0.51983253  0.39175160  0.47191084    -0.73700
O212        O  0.52516022  0.44804836  0.99560404    -0.77100
O213        O  0.57575115  0.42312633  0.12833911    -0.77800
C214        C  0.51461108  0.41947024  0.46529951     0.97400
O215        O  0.49502455  0.40013372  0.04053158    -0.75800
O216        O  0.58542285  0.38211749  0.47678401    -0.81000
C217        C  0.59708319  0.34483352  0.06894759     1.00100
C218        C  0.61208168  0.38766045  0.48935868     1.06000
O219        O  0.60010819  0.36811827  0.09082908    -0.76600
C220        C  0.49650714  0.37152177  0.04327342     1.04300
Fe221      Fe  0.81255889  0.22354036  0.42691115     1.65800
Fe222      Fe  0.87941150  0.20195972  0.38840395     1.73200
Fe223      Fe  0.84259695  0.15643600  0.45662161     1.54400
O224        O  0.84257130  0.18193796  0.01103283    -0.80400
O225        O  0.86840938  0.16390991  0.35488583    -0.78700
O226        O  0.81375849  0.22308090  0.48875559    -0.82900
O227        O  0.77805493  0.19255161  0.42730578    -0.77700
O228        O  0.88786031  0.15283162  0.46841890    -0.79500
O229        O  0.85662068  0.22994092  0.34967242    -0.82200
C230        C  0.77464424  0.17150211  0.45298841     0.98500
C231        C  0.82768832  0.20635502  0.01806714     1.06000
O232        O  0.84487296  0.19371113  0.42434322    -1.11200
O233        O  0.89035582  0.24045910  0.42103884    -0.73700
O234        O  0.84346797  0.25889280  0.42772765    -0.77100
O235        O  0.79567203  0.15278568  0.46013492    -0.77800
C236        C  0.87203865  0.26212037  0.42825328     0.97400
O237        O  0.80832633  0.22662257  0.36514247    -0.75800
O238        O  0.91131716  0.17716473  0.41899839    -0.81000
C239        C  0.85896014  0.13755216  0.36495205     1.00100
C240        C  0.91150788  0.15998907  0.44960617     1.06000
O241        O  0.84839453  0.13107861  0.40092555    -0.76600
C242        C  0.82948334  0.23688813  0.34350623     1.04300
Fe243      Fe  0.67722156  0.23020607  0.06626374     1.65800
Fe244      Fe  0.62118448  0.20385037  0.12229427     1.73200
Fe245      Fe  0.65550354  0.15744058  0.05499096     1.54400
O246        O  0.66143582  0.17434647  0.49777431    -0.80400
O247        O  0.63777550  0.16981312  0.15806985    -0.78700
O248        O  0.65927055  0.22893730  0.01090165    -0.82900
O249        O  0.71236356  0.20346022  0.04413867    -0.77700
O250        O  0.61020557  0.15435667  0.04354704    -0.79500
O251        O  0.64874764  0.23441817  0.15190227    -0.82200
C252        C  0.71864835  0.17543501  0.04334865     0.98500
C253        C  0.65943844  0.20219674  0.48651606     1.06000
O254        O  0.65177284  0.19635849  0.08170220    -1.11200
O255        O  0.60278736  0.23773353  0.08739871    -0.73700
O256        O  0.64550104  0.26319959  0.08088363    -0.77100
O257        O  0.70201184  0.15609073  0.06109887    -0.77800
C258        C  0.61689364  0.26196962  0.08005279     0.97400
O259        O  0.69454902  0.23303807  0.12358518    -0.75800
O260        O  0.58939235  0.17521003  0.09827769    -0.81000
C261        C  0.64379059  0.14252771  0.14908392     1.00100
C262        C  0.58767905  0.15983821  0.06594002     1.06000
O263        O  0.64944615  0.13388622  0.11224498    -0.76600
C264        C  0.67643552  0.24212489  0.15088434     1.04300
Fe265      Fe  0.02352022  0.05999943  0.43944830     1.65800
Fe266      Fe  0.04217083  0.11684307  0.50287704     1.73200
Fe267      Fe  0.09089959  0.09384048  0.43025440     1.54400
O268        O  0.09231906  0.04718767  0.41677892    -0.80400
O269        O  0.05384085  0.15574345  0.47161504    -0.78700
O270        O  0.05398967  0.02560138  0.45020025    -0.82900
O271        O  0.03937183  0.06065711  0.38132404    -0.77700
O272        O  0.11558555  0.08895929  0.48503005    -0.79500
O273        O  0.99838895  0.12306103  0.48116563    -0.82200
C274        C  0.04691734  0.08400243  0.36206221     0.98500
C275        C  0.07663656  0.02388867  0.42621909     1.06000
O276        O  0.05265503  0.08995633  0.45864304    -1.11200
O277        O  0.02377837  0.10048305  0.02703805    -0.73700
O278        O  0.00156344  0.05485355  0.49457171    -0.77100
O279        O  0.06681350  0.10186327  0.37626109    -0.77800
C280        C  0.01408456  0.07340730  0.02531149     0.97400
O281        O  0.99376119  0.09417970  0.42553796    -0.75800
O282        O  0.08983445  0.10660916  0.02555217    -0.81000
C283        C  0.07711016  0.16115433  0.45046461     1.00100
C284        C  0.11655532  0.10477797  0.01164407     1.06000
O285        O  0.09402668  0.14019635  0.43714425    -0.76600
C286        C  0.98493677  0.11564866  0.44833014     1.04300
Fe287      Fe  0.01882506  0.93141744  0.32452684     1.65800
Fe288      Fe  0.03721421  0.87292846  0.26309880     1.73200
Fe289      Fe  0.08844928  0.89944037  0.33026547     1.54400
O290        O  0.09029042  0.94566233  0.34331364    -0.80400
O291        O  0.04893504  0.83629416  0.29795214    -0.78700
O292        O  0.04910285  0.96657881  0.31654390    -0.82900
O293        O  0.03173383  0.92806305  0.38421819    -0.77700
O294        O  0.11049441  0.90322812  0.27341538    -0.79500
O295        O  0.99338619  0.86744494  0.28416275    -0.82200
C296        C  0.04951333  0.91152143  0.40456903     0.98500
C297        C  0.07311803  0.96835506  0.33768390     1.06000
O298        O  0.04835668  0.90162350  0.30552529    -1.11200
O299        O  0.02411184  0.90679999  0.22502294    -0.73700
O300        O  0.99991810  0.93807746  0.26711627    -0.77100
O301        O  0.06921742  0.89438824  0.38796292    -0.77800
C302        C  0.00494116  0.92733953  0.23191483     0.97400
O303        O  0.98779249  0.89854408  0.33688975    -0.75800
O304        O  0.07979609  0.87409198  0.23622077    -0.81000
C305        C  0.07456869  0.83165123  0.31344566     1.00100
C306        C  0.10511714  0.88706180  0.24180002     1.06000
O307        O  0.09215787  0.85297744  0.32372451    -0.76600
C308        C  0.97909629  0.87657859  0.31536516     1.04300
Fe309      Fe  0.18399170  0.26694486  0.43563078     1.65800
Fe310      Fe  0.12347182  0.29083059  0.38423059     1.73200
Fe311      Fe  0.15413425  0.33600810  0.45543780     1.54400
O312        O  0.16580192  0.32150480  0.01192651    -0.80400
O313        O  0.13773553  0.32767569  0.35058111    -0.78700
O314        O  0.17055598  0.26447526  0.49367460    -0.82900
O315        O  0.21761008  0.29631593  0.45638907    -0.77700
O316        O  0.10903412  0.33245293  0.46926425    -0.79500
O317        O  0.15146724  0.26300668  0.35142767    -0.82200
C318        C  0.21964608  0.32462362  0.46290793     0.98500
C319        C  0.16707279  0.29337305  0.02140915     1.06000
O320        O  0.15436016  0.29850509  0.42489073    -1.11200
O321        O  0.10844274  0.25313007  0.41651040    -0.73700
O322        O  0.15398979  0.23222609  0.42244631    -0.77100
O323        O  0.20019346  0.34309100  0.44891069    -0.77800
C324        C  0.12538746  0.23023610  0.42245149     0.97400
O325        O  0.19817398  0.26652545  0.37592761    -0.75800
O326        O  0.09010670  0.31760458  0.41028986    -0.81000
C327        C  0.13904502  0.35488632  0.36311244     1.00100
C328        C  0.08724008  0.32992795  0.44485961     1.06000
O329        O  0.14380103  0.36139765  0.40095005    -0.76600
C330        C  0.17935641  0.25664487  0.34994196     1.04300
Fe331      Fe  0.31815033  0.28309884  0.08069614     1.65800
Fe332      Fe  0.38288506  0.31111419  0.12074731     1.73200
Fe333      Fe  0.34426642  0.35076442  0.04782960     1.54400
O334        O  0.34265567  0.32762081  0.50868586    -0.80400
O335        O  0.37046205  0.35141570  0.15098492    -0.78700
O336        O  0.31994647  0.28247947  0.01892038    -0.82900
O337        O  0.28126275  0.31148476  0.07748482    -0.77700
O338        O  0.38933981  0.35908729  0.03949031    -0.79500
O339        O  0.36047175  0.28385770  0.16176323    -0.82200
C340        C  0.27708010  0.33148667  0.05044957     0.98500
C341        C  0.33106476  0.30194973  0.49968830     1.06000
O342        O  0.34847132  0.31519070  0.08289781    -1.11200
O343        O  0.39616895  0.27211010  0.09120687    -0.73700
O344        O  0.35137614  0.24953017  0.08225213    -0.77100
O345        O  0.29756609  0.35027701  0.04140713    -0.77800
C346        C  0.38018787  0.24906977  0.08251585     0.97400
O347        O  0.31282342  0.28156084  0.14216034    -0.75800
O348        O  0.41408364  0.33434460  0.08721093    -0.81000
C349        C  0.35607942  0.37479347  0.13812140     1.00100
C350        C  0.41348808  0.35187288  0.05703045     1.06000
O351        O  0.34491841  0.37689610  0.10176534    -0.76600
C352        C  0.33372643  0.27464004  0.16632901     1.04300
Fe353      Fe  0.02147846  0.56241555  0.05803894     1.65800
Fe354      Fe  0.04394599  0.62226875  0.00433030     1.73200
Fe355      Fe  0.09170995  0.59067770  0.07264880     1.54400
O356        O  0.06975733  0.58438445  0.12973893    -0.80400
O357        O  0.08596232  0.60427628  0.46549661    -0.78700
O358        O  0.02065895  0.57781891  0.11506604    -0.82900
O359        O  0.05048055  0.52886034  0.07894014    -0.77700
O360        O  0.09063618  0.63597691  0.08511576    -0.79500
O361        O  0.02066344  0.59854285  0.47159053    -0.82200
C362        C  0.07878386  0.52553166  0.08258878     0.98500
C363        C  0.04192152  0.58156294  0.14017057     1.06000
O364        O  0.05303869  0.59145365  0.04474269    -1.11200
O365        O  0.00711381  0.63744537  0.03743793    -0.73700
O366        O  0.98653427  0.59193093  0.04467627    -0.77100
O367        O  0.09723804  0.54431255  0.06719840    -0.77800
C368        C  0.98444674  0.62054381  0.04419968     0.97400
O369        O  0.02012388  0.54677563  0.99938147    -0.75800
O370        O  0.07032925  0.65606729  0.02962791    -0.81000
C371        C  0.11327466  0.59982744  0.47519318     1.00100
C372        C  0.08482575  0.65836278  0.06267721     1.06000
O373        O  0.11570203  0.59824372  0.01601631    -0.76600
C374        C  0.01150560  0.57120848  0.47358512     1.04300
Fe375      Fe  0.02854428  0.43499730  0.19796155     1.65800
Fe376      Fe  0.04689722  0.36589801  0.23365935     1.73200
Fe377      Fe  0.09564778  0.40401633  0.17109545     1.54400
O378        O  0.07135707  0.40739233  0.11615120    -0.80400
O379        O  0.08596499  0.37278168  0.26751336    -0.78700
O380        O  0.03107824  0.43454710  0.13633589    -0.82900
O381        O  0.06067688  0.46845808  0.20056471    -0.77700
O382        O  0.10166407  0.35889982  0.16201250    -0.79500
O383        O  0.02123319  0.38926550  0.27449325    -0.82200
C384        C  0.08114814  0.47191623  0.17420482     0.98500
C385        C  0.04692889  0.42213341  0.10883694     1.06000
O386        O  0.05720111  0.40153375  0.20072722    -1.11200
O387        O  0.00775005  0.35807274  0.20147784    -0.73700
O388        O  0.99175827  0.40579110  0.19460877    -0.77100
O389        O  0.09925093  0.45070038  0.16622112    -0.77800
C390        C  0.98710709  0.37735731  0.19421208     0.97400
O391        O  0.02388900  0.43803723  0.25941360    -0.75800
O392        O  0.06831455  0.33403425  0.19897033    -0.81000
C393        C  0.11194015  0.38469828  0.26122442     1.00100
C394        C  0.09016045  0.33465627  0.17449121     1.06000
O395        O  0.11905953  0.39893477  0.22791037    -0.76600
C396        C  0.01439246  0.41648685  0.28108767     1.04300
Fe397      Fe  0.97353673  0.93453082  0.05954554     1.65800
Fe398      Fe  0.94964759  0.87386002  0.00833321     1.73200
Fe399      Fe  0.90362189  0.90648999  0.07787205     1.54400
O400        O  0.92541433  0.91572016  0.13387778    -0.80400
O401        O  0.91637728  0.89016852  0.46547871    -0.78700
O402        O  0.97432840  0.92216335  0.11858359    -0.82900
O403        O  0.94477670  0.96923996  0.07710263    -0.77700
O404        O  0.90587381  0.86127364  0.09281223    -0.79500
O405        O  0.98462230  0.90357507  0.45655623    -0.82200
C406        C  0.91661486  0.97262563  0.08267895     0.98500
C407        C  0.95300141  0.91997095  0.14411934     1.06000
O408        O  0.94175360  0.90537644  0.04845901    -1.11200
O409        O  0.98661830  0.85829129  0.04118965    -0.73700
O410        O  0.00762493  0.90375035  0.04858306    -0.77100
O411        O  0.89754182  0.95300349  0.07054113    -0.77800
C412        C  0.00944101  0.87512057  0.04781283     0.97400
O413        O  0.97548181  0.94776142  0.99946448    -0.75800
O414        O  0.92198534  0.84125105  0.03494044    -0.81000
C415        C  0.88997193  0.89571365  0.47995863     1.00100
C416        C  0.90893824  0.83897573  0.06919668     1.06000
O417        O  0.87918396  0.89549130  0.02281533    -0.76600
C418        C  0.99568320  0.92903472  0.46565586     1.04300
Fe419      Fe  0.97622303  0.06994229  0.19422012     1.65800
Fe420      Fe  0.94859938  0.13018230  0.24188330     1.73200
Fe421      Fe  0.90615420  0.09583808  0.17040796     1.54400
O422        O  0.92997209  0.08882976  0.11547809    -0.80400
O423        O  0.91376272  0.11263839  0.27606708    -0.78700
O424        O  0.97753078  0.07855543  0.13432730    -0.82900
O425        O  0.94892744  0.03306166  0.18074020    -0.77700
O426        O  0.90689314  0.14128350  0.15672206    -0.79500
O427        O  0.98022490  0.10678654  0.27579705    -0.82200
C428        C  0.92171972  0.02894915  0.16965144     0.98500
C429        C  0.95763460  0.08286396  0.10742267     1.06000
O430        O  0.94309779  0.09795591  0.20209311    -1.11200
O431        O  0.98352985  0.14769049  0.20733432    -0.73700
O432        O  0.00853359  0.10397058  0.20206099    -0.77100
O433        O  0.90137513  0.04906211  0.17410696    -0.77800
C434        C  0.00757489  0.13282010  0.20026272     0.97400
O435        O  0.97770146  0.05934168  0.25494001    -0.75800
O436        O  0.91846974  0.16067017  0.21646841    -0.81000
C437        C  0.88671939  0.10953184  0.26353745     1.00100
C438        C  0.90713013  0.16307651  0.18134938     1.06000
O439        O  0.88037424  0.10426238  0.22559197    -0.76600
C440        C  0.98752417  0.07922534  0.27921445     1.04300
Fe441      Fe  0.81225510  0.72099141  0.05861779     1.65800
Fe442      Fe  0.87277982  0.70455597  0.11742851     1.73200
Fe443      Fe  0.84869006  0.65481941  0.04715093     1.54400
O444        O  0.80258755  0.65171736  0.03160009    -0.80400
O445        O  0.91007314  0.69551367  0.08188281    -0.78700
O446        O  0.77962776  0.68806766  0.06634830    -0.82900
O447        O  0.81516893  0.70843407  0.99901603    -0.77700
O448        O  0.84458779  0.63035458  0.10225794    -0.79500
O449        O  0.87613530  0.74930305  0.09790948    -0.82200
C450        C  0.83814745  0.70034423  0.46360001     0.98500
C451        C  0.77879842  0.66643172  0.04082938     1.06000
O452        O  0.84418944  0.69323351  0.07538337    -1.11200
O453        O  0.83871714  0.71502780  0.15644613    -0.73700
O454        O  0.80536375  0.73825014  0.11630154    -0.77100
O455        O  0.83891806  0.67391677  0.47961210    -0.77800
C456        C  0.81695259  0.73299846  0.15082218     0.97400
O457        O  0.84324201  0.75484095  0.04698855    -0.75800
O458        O  0.87256435  0.66093357  0.14175137    -0.81000
C459        C  0.91567253  0.67073425  0.06437430     1.00100
C460        C  0.85986494  0.63551927  0.13485378     1.06000
O461        O  0.89490223  0.65237509  0.05463583    -0.76600
C462        C  0.86556388  0.76403681  0.06778635     1.04300
Fe463      Fe  0.68703426  0.72189255  0.44018107     1.65800
Fe464      Fe  0.62319439  0.70178283  0.39051493     1.73200
Fe465      Fe  0.65840280  0.65206221  0.45227356     1.54400
O466        O  0.70523563  0.65332746  0.46046701    -0.80400
O467        O  0.59042371  0.68578370  0.43015936    -0.78700
O468        O  0.72023905  0.69214566  0.42302363    -0.82900
O469        O  0.69088774  0.70620306  0.49868306    -0.77700
O470        O  0.66041346  0.63051700  0.39485647    -0.79500
O471        O  0.61743618  0.74478769  0.41539787    -0.82200
C472        C  0.66547182  0.70582843  0.01639647     0.98500
C473        C  0.72596336  0.67091563  0.44789763     1.06000
O474        O  0.65632561  0.69187554  0.42655607    -1.11200
O475        O  0.65168729  0.71911904  0.34740943    -0.73700
O476        O  0.68726038  0.74242159  0.38366106    -0.77100
O477        O  0.64639845  0.68648890  0.00369161    -0.77800
C478        C  0.67294474  0.73806031  0.35089278     0.97400
O479        O  0.65513000  0.75241600  0.45960678    -0.75800
O480        O  0.62659216  0.65968856  0.36187030    -0.81000
C481        C  0.58952731  0.65977833  0.44640336     1.00100
C482        C  0.64240307  0.63555980  0.36478760     1.06000
O483        O  0.61290155  0.64398130  0.45165564    -0.76600
C484        C  0.63041704  0.76017440  0.44313732     1.04300
Fe485      Fe  0.47933626  0.93434329  0.19741761     1.65800
Fe486      Fe  0.44882452  0.87764037  0.25060885     1.73200
Fe487      Fe  0.40685472  0.91282792  0.17892470     1.54400
O488        O  0.40495348  0.95948237  0.18400695    -0.80400
O489        O  0.41948757  0.84707219  0.22430822    -0.78700
O490        O  0.45377969  0.97163644  0.18072021    -0.82900
O491        O  0.47888291  0.92168873  0.13876973    -0.77700
O492        O  0.38091246  0.90509680  0.23340053    -0.79500
O493        O  0.48314081  0.85788308  0.21803146    -0.82200
C494        C  0.45765828  0.91990246  0.11321983     0.98500
C495        C  0.42613158  0.97763511  0.17443837     1.06000
O496        O  0.44446608  0.90892451  0.20924819    -1.11200
O497        O  0.48063637  0.90214943  0.28295078    -0.73700
O498        O  0.48286348  0.94835702  0.25649672    -0.77100
O499        O  0.42976024  0.91838619  0.12309442    -0.77800
C500        C  0.49105071  0.92892734  0.28257072     0.97400
O501        O  0.51025663  0.89972779  0.20855817    -0.75800
O502        O  0.41375440  0.89600524  0.28400228    -0.81000
C503        C  0.40709121  0.84538095  0.18969162     1.00100
C504        C  0.38680919  0.89908212  0.27107629     1.06000
O505        O  0.40483870  0.86775378  0.16608474    -0.76600
C506        C  0.50777422  0.87103223  0.20960476     1.04300
Fe507      Fe  0.47459477  0.07870510  0.06899309     1.65800
Fe508      Fe  0.44834144  0.13549360  0.01392441     1.73200
Fe509      Fe  0.39989650  0.09552206  0.07447845     1.54400
O510        O  0.40221483  0.04877894  0.06919851    -0.80400
O511        O  0.41762277  0.16552217  0.03830969    -0.78700
O512        O  0.44983470  0.04102062  0.08642248    -0.82900
O513        O  0.46839233  0.09420865  0.12570870    -0.77700
O514        O  0.38009370  0.09894175  0.01547910    -0.79500
O515        O  0.48032677  0.15447935  0.05143628    -0.82200
C516        C  0.44510478  0.09117255  0.14777532     0.98500
C517        C  0.42238917  0.03303434  0.08660739     1.06000
O518        O  0.44023477  0.10287677  0.05207976    -1.11200
O519        O  0.47841454  0.11874173  0.47792834    -0.73700
O520        O  0.48217898  0.06398346  0.01057556    -0.77100
O521        O  0.41800978  0.09108633  0.13392905    -0.77800
C522        C  0.48745268  0.09182160  0.47287787     0.97400
O523        O  0.50625352  0.11220620  0.05946500    -0.75800
O524        O  0.41225902  0.12906984  0.48044216    -0.81000
C525        C  0.39851620  0.16493709  0.06700105     1.00100
C526        C  0.38924431  0.11148803  0.48198285     1.06000
O527        O  0.39141611  0.14077939  0.08546465    -0.76600
C528        C  0.50462666  0.14078809  0.05940720     1.04300
Fe529      Fe  0.30976983  0.23142218  0.32306093     1.65800
Fe530      Fe  0.37577660  0.21688069  0.37126218     1.73200
Fe531      Fe  0.34528082  0.16504563  0.30965811     1.54400
O532        O  0.29982638  0.16345869  0.29198576    -0.80400
O533        O  0.40944745  0.20103121  0.33426617    -0.78700
O534        O  0.27845904  0.19738797  0.33128066    -0.82900
O535        O  0.31343222  0.21885634  0.26340587    -0.77700
O536        O  0.33869757  0.14472260  0.36682012    -0.79500
O537        O  0.38218579  0.25770667  0.34222364    -0.82200
C538        C  0.33714610  0.21144989  0.24430381     0.98500
C539        C  0.27655326  0.17790713  0.30306726     1.06000
O540        O  0.34317658  0.20458814  0.33612685    -1.11200
O541        O  0.34786545  0.23759480  0.41188896    -0.73700
O542        O  0.30353241  0.24658960  0.38182883    -0.77100
O543        O  0.35400491  0.18954176  0.25617473    -0.77800
C544        C  0.32184799  0.24936445  0.41121811     0.97400
O545        O  0.33812899  0.26781501  0.31185041    -0.75800
O546        O  0.36992059  0.17568710  0.40246656    -0.81000
C547        C  0.41288846  0.17418630  0.32308984     1.00100
C548        C  0.35338302  0.15184810  0.39936426     1.06000
O549        O  0.39068834  0.15672357  0.31864633    -0.76600
C550        C  0.36516208  0.27465021  0.32101316     1.04300
Fe551      Fe  0.17682441  0.22574254  0.18852986     1.65800
Fe552      Fe  0.12459534  0.19396092  0.13000866     1.73200
Fe553      Fe  0.15906889  0.15207949  0.20240213     1.54400
O554        O  0.20575666  0.15259481  0.19566404    -0.80400
O555        O  0.09385801  0.16382446  0.15540142    -0.78700
O556        O  0.21363162  0.20107076  0.21031979    -0.82900
O557        O  0.15927695  0.22342811  0.24480562    -0.77700
O558        O  0.15207866  0.12638303  0.14804858    -0.79500
O559        O  0.10220324  0.22747147  0.16051268    -0.82200
C560        C  0.16422954  0.20206625  0.26952709     0.98500
C561        C  0.22141441  0.17338144  0.21232306     1.06000
O562        O  0.15400354  0.19011236  0.17327181    -1.11200
O563        O  0.15055222  0.22615630  0.09948270    -0.73700
O564        O  0.19476009  0.23013942  0.13143761    -0.77100
O565        O  0.16539360  0.17426984  0.25879274    -0.77800
C566        C  0.17724341  0.23668550  0.10222856     0.97400
O567        O  0.14250056  0.25583166  0.17278646    -0.75800
O568        O  0.14532865  0.15993675  0.09782623    -0.81000
C569        C  0.09149444  0.15146860  0.19022394     1.00100
C570        C  0.14760033  0.13280866  0.11029429     1.06000
O571        O  0.11357937  0.14902624  0.21448772    -0.76600
C572        C  0.11411481  0.25265118  0.16881655     1.04300
Fe573      Fe  0.52071150  0.92250480  0.43425195     1.65800
Fe574      Fe  0.54958743  0.87116254  0.49581263     1.73200
Fe575      Fe  0.59476228  0.90705047  0.42814299     1.54400
O576        O  0.57520499  0.91247804  0.36933678    -0.80400
O577        O  0.58486361  0.89483787  0.02695469    -0.78700
O578        O  0.52664009  0.90224954  0.38052362    -0.82900
O579        O  0.54557190  0.95980636  0.41310019    -0.77700
O580        O  0.59896170  0.86134439  0.41685775    -0.79500
O581        O  0.51873117  0.89840880  0.02508089    -0.82200
C582        C  0.57281283  0.96897108  0.41479141     0.98500
C583        C  0.54794429  0.90936987  0.35701566     1.06000
O584        O  0.55565128  0.90102136  0.45360180    -1.11200
O585        O  0.51840234  0.84776454  0.46148502    -0.73700
O586        O  0.49050806  0.88815824  0.44856228    -0.77100
O587        O  0.59291343  0.95393063  0.43379839    -0.77800
C588        C  0.49345456  0.85964866  0.45190028     0.97400
O589        O  0.51343329  0.94145800  0.49010004    -0.75800
O590        O  0.58239002  0.84147105  0.47495358    -0.81000
C591        C  0.61191512  0.89760265  0.01450509     1.00100
C592        C  0.59594846  0.83918595  0.44104005     1.06000
O593        O  0.61722632  0.90247189  0.48608939    -0.76600
C594        C  0.51015096  0.92587717  0.02528480     1.04300
Fe595      Fe  0.51954057  0.06474379  0.31602997     1.65800
Fe596      Fe  0.53558600  0.12511733  0.25616444     1.73200
Fe597      Fe  0.58882544  0.09605137  0.31787533     1.54400
O598        O  0.56831666  0.10754520  0.37357056    -0.80400
O599        O  0.57545851  0.11802554  0.22347333    -0.78700
O600        O  0.53862288  0.06761011  0.37241826    -0.82900
O601        O  0.54945959  0.03078364  0.30227494    -0.77700
O602        O  0.59728374  0.14173533  0.30747344    -0.79500
O603        O  0.51432618  0.09411688  0.22012702    -0.82200
C604        C  0.57120726  0.02730970  0.32692348     0.98500
C605        C  0.54688594  0.09193930  0.38896811     1.06000
O606        O  0.54791020  0.09492267  0.29517907    -1.11200
O607        O  0.49519425  0.13362944  0.28557370    -0.73700
O608        O  0.48808967  0.09693127  0.33179188    -0.77100
O609        O  0.58833946  0.04961293  0.33569043    -0.77800
C610        C  0.48020830  0.12134693  0.31430161     0.97400
O611        O  0.49635501  0.05885416  0.26248714    -0.75800
O612        O  0.55351986  0.16071276  0.28829311    -0.81000
C613        C  0.59973409  0.10243038  0.22640693     1.00100
C614        C  0.58015789  0.16411810  0.30086375     1.06000
O615        O  0.60736261  0.08820699  0.25926204    -0.76600
C616        C  0.49633940  0.07275541  0.22882322     1.04300
Fe617      Fe  0.81052682  0.28083901  0.19039131     1.65800
Fe618      Fe  0.87088180  0.29584531  0.13065688     1.73200
Fe619      Fe  0.84854080  0.34598232  0.20182471     1.54400
O620        O  0.80206104  0.34957100  0.21717855    -0.80400
O621        O  0.90872240  0.30543562  0.16457371    -0.78700
O622        O  0.77854857  0.31423969  0.18091581    -0.82900
O623        O  0.81283743  0.29605846  0.24854994    -0.77700
O624        O  0.84462844  0.37084828  0.14722680    -0.79500
O625        O  0.87412217  0.25172155  0.15221905    -0.82200
C626        C  0.83703394  0.30063352  0.26732712     0.98500
C627        C  0.77789149  0.33564230  0.20698967     1.06000
O628        O  0.84283974  0.30796446  0.17277021    -1.11200
O629        O  0.83672615  0.28393212  0.09243664    -0.73700
O630        O  0.80436092  0.26088345  0.13407179    -0.77100
O631        O  0.85587397  0.32028628  0.25464566    -0.77800
C632        C  0.81650915  0.26442265  0.09947427     0.97400
O633        O  0.84141504  0.24730640  0.20389139    -0.75800
O634        O  0.87011454  0.33926976  0.10568758    -0.81000
C635        C  0.91513815  0.33015036  0.18164613     1.00100
C636        C  0.85866977  0.36515206  0.11371587     1.06000
O637        O  0.89491612  0.34848645  0.19333596    -0.76600
C638        C  0.86353532  0.23761065  0.18295145     1.04300
Fe639      Fe  0.68765098  0.27623208  0.31942726     1.65800
Fe640      Fe  0.62033790  0.29224262  0.36440128     1.73200
Fe641      Fe  0.65199180  0.34287806  0.29925892     1.54400
O642        O  0.69810998  0.34655736  0.28779827    -0.80400
O643        O  0.58554865  0.30968063  0.32997841    -0.78700
O644        O  0.72036987  0.30991799  0.32208563    -0.82900
O645        O  0.68439723  0.28297026  0.25837096    -0.77700
O646        O  0.65237108  0.36571453  0.35556406    -0.79500
O647        O  0.61312423  0.25183966  0.33474929    -0.82200
C648        C  0.66758126  0.29752650  0.23398135     0.98500
C649        C  0.72151836  0.33153018  0.29656251     1.06000
O650        O  0.65348138  0.30384614  0.32825542    -1.11200
O651        O  0.64736927  0.26904825  0.40428125    -0.73700
O652        O  0.69411301  0.26556077  0.37982729    -0.77100
O653        O  0.65047807  0.31945269  0.24463941    -0.77800
C654        C  0.67407168  0.25901841  0.40590435     0.97400
O655        O  0.65936799  0.23872675  0.31387212    -0.75800
O656        O  0.62637383  0.33317296  0.39602133    -0.81000
C657        C  0.58293500  0.33325681  0.30878696     1.00100
C658        C  0.63889166  0.35896516  0.38921980     1.06000
O659        O  0.60564294  0.34859333  0.29811199    -0.76600
C660        C  0.63151893  0.23288199  0.31951441     1.04300
Fe661      Fe  0.47778957  0.57784560  0.43789658     1.65800
Fe662      Fe  0.44685562  0.63005340  0.49711020     1.73200
Fe663      Fe  0.40631682  0.60000239  0.42093663     1.54400
O664        O  0.42964379  0.59366994  0.36539691    -0.80400
O665        O  0.41841589  0.61466136  0.02615401    -0.78700
O666        O  0.47823837  0.59680679  0.38268227    -0.82900
O667        O  0.45165455  0.54239932  0.41429932    -0.77700
O668        O  0.40769843  0.64588486  0.41043473    -0.79500
O669        O  0.48345057  0.60143258  0.02537547    -0.82200
C670        C  0.42365652  0.53599371  0.41145884     0.98500
C671        C  0.45771064  0.59439367  0.35640350     1.06000
O672        O  0.44315232  0.60191979  0.45242356    -1.11200
O673        O  0.48155345  0.65239951  0.46798760    -0.73700
O674        O  0.50858658  0.61106414  0.45549132    -0.77100
O675        O  0.40332184  0.55321713  0.42618349    -0.77800
C676        C  0.50634133  0.63969735  0.45914954     0.97400
O677        O  0.47982271  0.55871039  0.49445954    -0.75800
O678        O  0.41685830  0.66172266  0.47331373    -0.81000
C679        C  0.39127480  0.61405245  0.01346631     1.00100
C680        C  0.40743843  0.66632918  0.43732958     1.06000
O681        O  0.37958798  0.60741278  0.47447137    -0.76600
C682        C  0.48981313  0.57342139  0.02570149     1.04300
Fe683      Fe  0.47608886  0.44123421  0.30147931     1.65800
Fe684      Fe  0.45294283  0.38243637  0.24201762     1.73200
Fe685      Fe  0.40896369  0.40916013  0.31794659     1.54400
O686        O  0.43460799  0.39899203  0.36930733    -0.80400
O687        O  0.40837192  0.38837260  0.21828475    -0.78700
O688        O  0.46538542  0.43814957  0.36167033    -0.82900
O689        O  0.44502307  0.47555941  0.29575062    -0.77700
O690        O  0.40111299  0.36355370  0.30932912    -0.79500
O691        O  0.46751471  0.41625613  0.20387218    -0.82200
C692        C  0.42541410  0.47815695  0.32373780     0.98500
C693        C  0.45617282  0.41562663  0.38181086     1.06000
O694        O  0.44603827  0.41090606  0.28627211    -1.11200
O695        O  0.49763435  0.37409282  0.26137719    -0.73700
O696        O  0.50882963  0.40892215  0.30871368    -0.77100
O697        O  0.41002052  0.45531081  0.33522686    -0.77800
C698        C  0.51538195  0.38560132  0.28794796     0.97400
O699        O  0.49254357  0.44798486  0.24431595    -0.75800
O700        O  0.44030947  0.34516749  0.27568890    -0.81000
C701        C  0.38579182  0.40450673  0.22967855     1.00100
C702        C  0.41651231  0.34151282  0.29625948     1.06000
O703        O  0.38456329  0.41724661  0.26487975    -0.76600
C704        C  0.48739707  0.43633756  0.21008026     1.04300
C705        C  0.41511727  0.50907461  0.38670885    -0.15100
C706        C  0.42473568  0.50688675  0.34749298    -0.30300
H707        H  0.40265764  0.49073198  0.40094014     0.13900
H708        H  0.43710004  0.52586534  0.33455214     0.14500
C709        C  0.55224223  0.34352975  0.29721372    -0.15100
C710        C  0.54597409  0.37315491  0.29420065    -0.30300
H711        H  0.53412131  0.32703673  0.29516409     0.13900
H712        H  0.56376612  0.38943512  0.30048308     0.14500
C713        C  0.74984812  0.34024679  0.23166181    -0.15100
C714        C  0.74994915  0.33726308  0.27309480    -0.30300
H715        H  0.72838916  0.33998645  0.21571315     0.13900
H716        H  0.77126172  0.33344795  0.28856855     0.14500
C717        C  0.59109390  0.19517508  0.30836311    -0.15100
C718        C  0.62061793  0.20221295  0.30918870    -0.30300
H719        H  0.57431752  0.21282382  0.31261102     0.13900
H720        H  0.63732642  0.18485423  0.30278194     0.14500
C721        C  0.58110811  0.99635131  0.39035746    -0.15100
C722        C  0.57237074  0.99851273  0.35073359    -0.30300
H723        H  0.59294254  0.01489186  0.40497142     0.13900
H724        H  0.56065151  0.97936748  0.33742546     0.14500
C725        C  0.45133316  0.13488633  0.32639362    -0.15100
C726        C  0.44341284  0.16295069  0.31519050    -0.30300
H727        H  0.43554349  0.12093231  0.34351511     0.13900
H728        H  0.45962211  0.17796438  0.30067570     0.14500
C729        C  0.24757918  0.16573971  0.23898475    -0.15100
C730        C  0.24868856  0.17674520  0.27770077    -0.30300
H731        H  0.26605042  0.15244213  0.22672980     0.13900
H732        H  0.22952228  0.18949588  0.28892237     0.14500
C733        C  0.37661277  0.30428188  0.30771368    -0.15100
C734        C  0.40621032  0.31064545  0.30552408    -0.30300
H735        H  0.36015377  0.32159321  0.29994637     0.13900
H736        H  0.42293539  0.29298961  0.31009752     0.14500
C737        C  0.37121980  0.11068946  0.44395292    -0.15100
C738        C  0.35131953  0.13313589  0.43688722    -0.30300
H739        H  0.38255592  0.10089306  0.41774822     0.13900
H740        H  0.34262317  0.14508248  0.46332456     0.14500
C741        C  0.50646952  0.08437804  0.43811556    -0.15100
C742        C  0.52994653  0.10154165  0.42542675    -0.30300
H743        H  0.50195555  0.06258099  0.42417151     0.13900
H744        H  0.53544130  0.12269472  0.44045220     0.14500
C745        C  0.45159731  0.08532775  0.19062303    -0.15100
C746        C  0.47373071  0.06515974  0.19857231    -0.30300
H747        H  0.44509889  0.10223733  0.21294808     0.13900
H748        H  0.48056344  0.04903696  0.17535014     0.14500
C749        C  0.41969438  0.00604967  0.15215506    -0.15100
C750        C  0.41429461  0.00602634  0.11139901    -0.30300
H751        H  0.42723221  0.02686246  0.16629445     0.13900
H752        H  0.40838891  0.98515981  0.09590982     0.14500
C753        C  0.51487970  0.93593560  0.31170484    -0.15100
C754        C  0.53854359  0.91679502  0.31566981    -0.30300
H755        H  0.50941262  0.95184201  0.33582628     0.13900
H756        H  0.54380219  0.90064551  0.29187639     0.14500
C757        C  0.49116606  0.93571474  0.05900805    -0.15100
C758        C  0.46710755  0.91911739  0.07056903    -0.30300
H759        H  0.49942065  0.95406244  0.07796677     0.13900
H760        H  0.45786466  0.90174205  0.05081106     0.14500
C761        C  0.56085882  0.64560582  0.45819224    -0.15100
C762        C  0.53363514  0.65829088  0.45332895    -0.30300
H763        H  0.56229311  0.62243334  0.46925017     0.13900
H764        H  0.53145678  0.68175821  0.44392071     0.14500
C765        C  0.61666227  0.78873255  0.45629475    -0.15100
C766        C  0.60847433  0.80971172  0.42887612    -0.30300
H767        H  0.61577214  0.79374149  0.48865378     0.13900
H768        H  0.61227542  0.80558902  0.39664478     0.14500
C769        C  0.75075515  0.66164328  0.01663481    -0.15100
C770        C  0.75527627  0.67131407  0.46924556    -0.30300
H771        H  0.72934546  0.66285451  0.03270401     0.13900
H772        H  0.77330851  0.68391893  0.45467144     0.14500
C773        C  0.89348058  0.19191496  0.16879732    -0.15100
C774        C  0.87767408  0.20886426  0.19518790    -0.30300
H775        H  0.89475524  0.19835881  0.13689055     0.13900
H776        H  0.87423010  0.20092803  0.22620663     0.14500
C777        C  0.03569096  0.14908185  0.19037174    -0.15100
C778        C  0.06249545  0.13799154  0.20241954    -0.30300
H779        H  0.03447593  0.17019070  0.17341223     0.13900
H780        H  0.06321358  0.11833429  0.22237855     0.14500
C781        C  0.89620368  0.80962654  0.08180710    -0.15100
C782        C  0.87992985  0.79284363  0.05576612    -0.30300
H783        H  0.89787450  0.80302243  0.11361555     0.13900
H784        H  0.87603320  0.80113492  0.02501526     0.14500
C785        C  0.91518241  0.99999419  0.14812599    -0.15100
C786        C  0.90713197  0.99903777  0.10804977    -0.30300
H787        H  0.92521376  0.97981505  0.16131438     0.13900
H788        H  0.89948701  0.01944043  0.09276189     0.14500
C789        C  0.10481659  0.30646430  0.16218402    -0.15100
C790        C  0.09470154  0.27919586  0.17355635    -0.30300
H791        H  0.12634852  0.30835880  0.14650701     0.13900
H792        H  0.07262384  0.27650773  0.18750506     0.14500
C793        C  0.95587279  0.36731850  0.18686283    -0.15100
C794        C  0.94718695  0.33820383  0.18710559    -0.30300
H795        H  0.93900202  0.38489715  0.18246930     0.13900
H796        H  0.96380561  0.32022074  0.18958655     0.14500
C797        C  0.08120875  0.50001322  0.14915910    -0.15100
C798        C  0.08966266  0.50061516  0.10931837    -0.30300
H799        H  0.06844639  0.51905116  0.16105545     0.13900
H800        H  0.10170094  0.48173288  0.09583937     0.14500
C801        C  0.94734241  0.66208042  0.05644983    -0.15100
C802        C  0.95402565  0.63285780  0.05022631    -0.30300
H803        H  0.96508081  0.67900418  0.05804115     0.13900
H804        H  0.93596505  0.61619167  0.05088185     0.14500
C805        C  0.34901898  0.40080464  0.16570842    -0.15100
C806        C  0.35981365  0.41151090  0.20192815    -0.30300
H807        H  0.33021341  0.41405597  0.15401601     0.13900
H808        H  0.34676056  0.43054458  0.21339948     0.14500
C809        C  0.33249708  0.29035341  0.45800470    -0.15100
C810        C  0.31368367  0.26804917  0.44598338    -0.30300
H811        H  0.35107713  0.29753268  0.43861327     0.13900
H812        H  0.29398361  0.26177846  0.46384138     0.14500
C813        C  0.32686480  0.25421068  0.19969419    -0.15100
C814        C  0.34456026  0.23013871  0.20862834    -0.30300
H815        H  0.30564796  0.25803480  0.21545798     0.13900
H816        H  0.36498175  0.22560768  0.19135064     0.14500
C817        C  0.38336126  0.19335178  0.07890413    -0.15100
C818        C  0.39581147  0.22065846  0.07195624    -0.30300
H819        H  0.36174120  0.19178523  0.09446718     0.13900
H820        H  0.41844035  0.22219352  0.05929610     0.14500
C821        C  0.24867468  0.33040490  0.02612959    -0.15100
C822        C  0.24384683  0.33539032  0.49115448    -0.30300
H823        H  0.22986569  0.31801673  0.03933437     0.13900
H824        H  0.26130906  0.35032180  0.47951036     0.14500
C825        C  0.12971580  0.37905429  0.33339404    -0.15100
C826        C  0.13542612  0.37747123  0.29271892    -0.30300
H827        H  0.11195584  0.39413783  0.34372597     0.13900
H828        H  0.15389852  0.36324617  0.28244864     0.14500
C829        C  0.17008697  0.28313277  0.06360800    -0.15100
C830        C  0.18682094  0.25814975  0.07101342    -0.30300
H831        H  0.15423155  0.29157955  0.08606887     0.13900
H832        H  0.20313326  0.25020832  0.04872792     0.14500
C833        C  0.16991360  0.21114653  0.31148910    -0.15100
C834        C  0.18810051  0.23522293  0.31835377    -0.30300
H835        H  0.15430930  0.20323101  0.33475433     0.13900
H836        H  0.20417982  0.24274009  0.29545318     0.14500
C837        C  0.96172875  0.92229903  0.18722719    -0.15100
C838        C  0.98712043  0.93745092  0.19724575    -0.30300
H839        H  0.95005166  0.90841801  0.20960137     0.13900
H840        H  0.99891044  0.95081287  0.17440975     0.14500
C841        C  0.05011498  0.91614098  0.44889787    -0.15100
C842        C  0.02910258  0.93244522  0.46907589    -0.30300
H843        H  0.07228986  0.91422589  0.46274344     0.13900
H844        H  0.03676246  0.94421463  0.49616700     0.14500
C845        C  0.14172074  0.11238495  0.04005862    -0.15100
C846        C  0.13939450  0.10842868  0.08088060    -0.30300
H847        H  0.15822146  0.12844428  0.02851135     0.13900
H848        H  0.12406677  0.09121496  0.09235998     0.14500
C849        C  0.08544306  0.19300427  0.44187642    -0.15100
C850        C  0.11312122  0.19956593  0.42781977    -0.30300
H851        H  0.06978293  0.21104718  0.44950083     0.13900
H852        H  0.12902340  0.18123266  0.42258020     0.14500
C853        C  0.07915192  0.99644044  0.36091741    -0.15100
C854        C  0.08101867  0.99580079  0.40227065    -0.30300
H855        H  0.07622494  0.01795850  0.34537222     0.13900
H856        H  0.07971272  0.97425387  0.41813833     0.14500
C857        C  0.99286080  0.06396178  0.05680052    -0.15100
C858        C  0.96873275  0.08155585  0.06544018    -0.30300
H859        H  0.99985953  0.04601009  0.07739319     0.13900
H860        H  0.96104681  0.09864866  0.04399636     0.14500
C861        C  0.00898187  0.07084460  0.31104443    -0.15100
C862        C  0.03035111  0.09042008  0.32428586    -0.30300
H863        H  0.00691200  0.04833840  0.32412480     0.13900
H864        H  0.03329851  0.11232205  0.30972129     0.14500
C865        C  0.55876495  0.14646644  0.05469953    -0.15100
C866        C  0.53228138  0.15782666  0.06726949    -0.30300
H867        H  0.55927846  0.12622713  0.03592607     0.13900
H868        H  0.53108975  0.17928767  0.08324443     0.14500
C869        C  0.68105230  0.23830606  0.43935267    -0.15100
C870        C  0.66484788  0.21249173  0.44461999    -0.30300
H871        H  0.69505926  0.24702513  0.46382306     0.13900
H872        H  0.65127138  0.20319216  0.42013551     0.14500
C873        C  0.68615536  0.26405659  0.18095224    -0.15100
C874        C  0.66668618  0.28593172  0.19250172    -0.30300
H875        H  0.70701869  0.25976271  0.19732561     0.13900
H876        H  0.64677709  0.29089954  0.17435188     0.14500
C877        C  0.64229115  0.12109444  0.18438389    -0.15100
C878        C  0.61865581  0.10200314  0.18861050    -0.30300
H879        H  0.65226947  0.12953267  0.21237619     0.13900
H880        H  0.60642468  0.09635866  0.16098290     0.14500
C881        C  0.94009396  0.14658829  0.46293486    -0.15100
C882        C  0.95786637  0.13244890  0.43593603    -0.30300
H883        H  0.94479011  0.14505400  0.49534442     0.13900
H884        H  0.95121672  0.13151820  0.40409022     0.11300
C885        C  0.86502606  0.11306814  0.33430540    -0.15100
C886        C  0.86232617  0.11773651  0.29342289    -0.30300
H887        H  0.87975443  0.09501036  0.34470157     0.13900
H888        H  0.84657971  0.13490876  0.28302007     0.14500
C889        C  0.82653492  0.21958882  0.05915325    -0.15100
C890        C  0.80876867  0.24389076  0.06656522    -0.30300
H891        H  0.84296072  0.21219958  0.08163110     0.13900
H892        H  0.79259549  0.25192968  0.04421203     0.14500
C893        C  0.82295403  0.25897284  0.31196146    -0.15100
C894        C  0.84286606  0.28115599  0.30250575    -0.30300
H895        H  0.80106454  0.25750660  0.29721348     0.13900
H896        H  0.86416895  0.28327110  0.31861306     0.14500
C897        C  0.74614434  0.17118524  0.47723850    -0.15100
C898        C  0.74450663  0.16550090  0.01769717    -0.30300
H899        H  0.72739017  0.18398460  0.46464508     0.13900
H900        H  0.76171846  0.15105011  0.03093765     0.14500
C901        C  0.63665622  0.37905377  0.46048081    -0.15100
C902        C  0.63334783  0.38326666  0.41986007    -0.30300
H903        H  0.65212462  0.36170107  0.47109118     0.13900
H904        H  0.61849836  0.40129046  0.40963592     0.14500
C905        C  0.47226831  0.40912599  0.41972151    -0.15100
C906        C  0.49494467  0.42752721  0.43166029    -0.30300
H907        H  0.46736391  0.38827539  0.43605441     0.13900
H908        H  0.49898635  0.44917078  0.41685175     0.14500
C909        C  0.53533459  0.43157572  0.17617826    -0.15100
C910        C  0.50734683  0.44380009  0.17673833    -0.30300
H911        H  0.54630293  0.42381569  0.20387056     0.13900
H912        H  0.49652290  0.45073117  0.14852124     0.14500
C913        C  0.60002195  0.28953761  0.07075867    -0.15100
C914        C  0.61021622  0.31644327  0.08341066    -0.30300
H915        H  0.57949346  0.28785904  0.05283675     0.13900
H916        H  0.62939278  0.31767195  0.10396804     0.14500
C917        C  0.46888136  0.35446323  0.05237697    -0.15100
C918        C  0.44168044  0.36576609  0.04283115    -0.30300
H919        H  0.47083362  0.33274758  0.06774397     0.13900
H920        H  0.44001943  0.38652280  0.02513079     0.14500
C921        C  0.63979215  0.61560406  0.29362622    -0.15100
C922        C  0.63553421  0.61150843  0.33420776    -0.30300
H923        H  0.65729959  0.63112251  0.28359348     0.13900
H924        H  0.61812860  0.59566432  0.34366466     0.14500
C925        C  0.49182008  0.57239824  0.30794553    -0.15100
C926        C  0.46835495  0.59119028  0.31472602    -0.30300
H927        H  0.49760222  0.55478435  0.32974466     0.13900
H928        H  0.46192723  0.60825479  0.29254795     0.14500
C929        C  0.53573468  0.58038847  0.06437388    -0.15100
C930        C  0.51107100  0.56331477  0.05663847    -0.30300
H931        H  0.54408159  0.59656021  0.04206512     0.13900
H932        H  0.50340917  0.54628692  0.07823325     0.14500
C933        C  0.58356378  0.50118560  0.14440639    -0.15100
C934        C  0.58960635  0.50205099  0.10371140    -0.30300
H935        H  0.57507492  0.48029146  0.15742428     0.13900
H936        H  0.59607418  0.52320661  0.08925223     0.14500
C937        C  0.86722615  0.61072201  0.16424383    -0.15100
C938        C  0.86313978  0.61395503  0.20497007    -0.30300
H939        H  0.88414057  0.59473068  0.15381544     0.13900
H940        H  0.84580353  0.62944637  0.21551726     0.14500
C941        C  0.03226600  0.58279090  0.18280134    -0.15100
C942        C  0.00814024  0.56607042  0.19415108    -0.30300
H943        H  0.04107901  0.60053874  0.20230351     0.13900
H944        H  0.00052102  0.54724798  0.17554231     0.14500
C945        C  0.96434576  0.57882170  0.43689176    -0.15100
C946        C  0.98909786  0.56162364  0.44365231    -0.30300
H947        H  0.95680281  0.59507365  0.45928328     0.13900
H948        H  0.99629274  0.54507814  0.42120021     0.14500
C949        C  0.86247714  0.38617201  0.04367294    -0.15100
C950        C  0.86606039  0.38984230  0.08431008    -0.30300
H951        H  0.84560479  0.37015802  0.03319132     0.13900
H952        H  0.88272325  0.40607627  0.09479104     0.14500
C953        C  0.00934507  0.44094070  0.06039692    -0.15100
C954        C  0.03431580  0.42402563  0.06737864    -0.30300
H955        H  0.00037678  0.45596420  0.08356782     0.13900
H956        H  0.04252288  0.40843863  0.04432305     0.14500
C957        C  0.97110081  0.40336699  0.32365866    -0.15100
C958        C  0.99344571  0.42289019  0.31371255    -0.30300
H959        H  0.96786886  0.38235462  0.30706420     0.13900
H960        H  0.99585377  0.44461618  0.32883776     0.14500
C961        C  0.88305277  0.29299063  0.43607978    -0.15100
C962        C  0.91224891  0.30072391  0.43761734    -0.30300
H963        H  0.86600767  0.31042448  0.44019703     0.13900
H964        H  0.92968566  0.28352363  0.43553205     0.14500
C965        C  0.92366332  0.49866124  0.39865650    -0.15100
C966        C  0.91577434  0.50029462  0.35863930    -0.30300
H967        H  0.93527817  0.51790586  0.41195567     0.13900
H968        H  0.90436688  0.48152116  0.34395059     0.14500
C969        C  0.04239353  0.36052318  0.43102212    -0.15100
C970        C  0.05804187  0.34291696  0.45685071    -0.30300
H971        H  0.05093709  0.36437896  0.40039365     0.13900
H972        H  0.05121585  0.34115923  0.48855326     0.14500
C973        C  0.06222496  0.64051767  0.30158092    -0.15100
C974        C  0.03466685  0.65247331  0.30760453    -0.30300
H975        H  0.06428149  0.61767167  0.28967963     0.13900
H976        H  0.03225300  0.67572777  0.31776984     0.14500
C977        C  0.15195038  0.62534677  0.43369133    -0.15100
C978        C  0.13470512  0.60061728  0.44004999    -0.30300
H979        H  0.15714101  0.63887114  0.46039857     0.13900
H980        H  0.12682847  0.58891441  0.41298441     0.14500
C981        C  0.11364057  0.79332382  0.30936993    -0.15100
C982        C  0.08492468  0.80039942  0.31815290    -0.30300
H983        H  0.12886378  0.81081669  0.29827439     0.13900
H984        H  0.06889372  0.78314161  0.32753522     0.14500
C985        C  0.36977472  0.61922249  0.08342553    -0.15100
C986        C  0.36727961  0.62355507  0.04271813    -0.30300
H987        H  0.38458752  0.60145625  0.09452201     0.13900
H988        H  0.35133362  0.64028870  0.03156407     0.14500
C989        C  0.44131364  0.64561847  0.20818338    -0.15100
C990        C  0.46797672  0.65367316  0.19215339    -0.30300
H991        H  0.44001997  0.62667705  0.22925728     0.13900
H992        H  0.46994003  0.67392239  0.17350297     0.14500
C993        C  0.25454372  0.67749121  0.27509164    -0.15100
C994        C  0.25656188  0.66751405  0.23609994    -0.30300
H995        H  0.27251220  0.69167586  0.28693096     0.13900
H996        H  0.23912860  0.65327201  0.22302022     0.14500
C997        C  0.40326399  0.79000569  0.18955282    -0.15100
C998        C  0.39321112  0.81698070  0.17691854    -0.30300
H999        H  0.42394005  0.78809913  0.20710663     0.13900
H1000       H  0.37395602  0.81829841  0.15649122     0.14500
C1001       C  0.03996058  0.86295207  0.05343201    -0.15100
C1002       C  0.04690219  0.83401594  0.06102273    -0.30300
H1003       H  0.05793655  0.87970460  0.05301013     0.13900
H1004       H  0.02928937  0.81701832  0.06351754     0.14500
C1005       C  0.12626013  0.88197778  0.17169266    -0.15100
C1006       C  0.12966376  0.87888066  0.21247096    -0.30300
H1007       H  0.10981697  0.89825979  0.16067165     0.13900
H1008       H  0.14608923  0.86261313  0.22357020     0.14500
C1009       C  0.18627123  0.73552555  0.18035727    -0.15100
C1010       C  0.16856772  0.71207486  0.19210769    -0.30300
H1011       H  0.20483481  0.74329782  0.19921317     0.13900
H1012       H  0.15011723  0.70451272  0.17286968     0.14500
C1013       C  0.15728978  0.78490459  0.44842683    -0.15100
C1014       C  0.17737208  0.76339945  0.43757135    -0.30300
H1015       H  0.13607619  0.78753820  0.43222342     0.13900
H1016       H  0.19930884  0.76158441  0.45214361     0.14500
C1017       C  0.11244726  0.70509563  0.04999012    -0.15100
C1018       C  0.09619805  0.68790504  0.07551322    -0.30300
H1019       H  0.11660494  0.69741491  0.01905127     0.13900
H1020       H  0.09438927  0.69389691  0.10749856     0.14500
C1021       C  0.43955696  0.85260461  0.45521067    -0.15100
C1022       C  0.46649583  0.84064614  0.44610800    -0.30300
H1023       H  0.43873279  0.87486327  0.46927076     0.13900
H1024       H  0.46852618  0.81791925  0.43395215     0.14500
C1025       C  0.36325795  0.89350088  0.34048529    -0.15100
C1026       C  0.36182896  0.88987849  0.29948530    -0.30300
H1027       H  0.37828703  0.91072389  0.35244807     0.13900
H1028       H  0.34607926  0.87331506  0.28749687     0.14500
C1029       C  0.31325950  0.74508812  0.32029867    -0.15100
C1030       C  0.32934915  0.71934813  0.31485838    -0.30300
H1031       H  0.30181853  0.75548126  0.29456064     0.13900
H1032       H  0.34140642  0.70880067  0.33993083     0.14500
C1033       C  0.31879638  0.76637428  0.07467610    -0.15100
C1034       C  0.33738285  0.78883248  0.06194305    -0.30300
H1035       H  0.29679542  0.76294142  0.06086989     0.13900
H1036       H  0.35856260  0.79318520  0.07749885     0.14500
C1037       C  0.24367467  0.83540506  0.02026118    -0.15100
C1038       C  0.24577017  0.83779449  0.48481695    -0.30300
H1039       H  0.26493456  0.83651318  0.03662052     0.13900
H1040       H  0.22399244  0.83587574  0.46992564     0.14500
C1041       C  0.38012290  0.71305160  0.45347613    -0.15100
C1042       C  0.39520905  0.69611944  0.42638052    -0.30300
H1043       H  0.37625572  0.70459846  0.48415225     0.13900
H1044       H  0.39649428  0.70321473  0.39471303     0.14500
C1045       C  0.53454650  0.85268054  0.20091405    -0.15100
C1046       C  0.56197360  0.86239014  0.21189265    -0.30300
H1047       H  0.53183474  0.83126299  0.18514814     0.13900
H1048       H  0.56432092  0.88268298  0.23020628     0.14500
C1049       C  0.68082848  0.75552154  0.31494374    -0.15100
C1050       C  0.66954973  0.78354340  0.30872720    -0.30300
H1051       H  0.69037891  0.74271026  0.28983498     0.13900
H1052       H  0.65960570  0.79638672  0.33351871     0.14500
C1053       C  0.65969764  0.72452758  0.05246465    -0.15100
C1054       C  0.67933650  0.74652803  0.06342878    -0.30300
H1055       H  0.63814468  0.72215918  0.06799271     0.13900
H1056       H  0.70152093  0.74825538  0.04949842     0.14500
C1057       C  0.63645892  0.89043445  0.04413824    -0.15100
C1058       C  0.63301871  0.89378473  0.08492139    -0.30300
H1059       H  0.65368429  0.87496715  0.03318230     0.13900
H1060       H  0.61689211  0.91032295  0.09607695     0.14500
C1061       C  0.60002819  0.71758378  0.17918165    -0.15100
C1062       C  0.61028515  0.69074344  0.16599042    -0.30300
H1063       H  0.57923698  0.71892823  0.19667003     0.13900
H1064       H  0.62974599  0.68976716  0.14583055     0.14500
C1065       C  0.93430900  0.84593162  0.30090950    -0.15100
C1066       C  0.95106875  0.86152288  0.32744063    -0.30300
H1067       H  0.94109053  0.84431366  0.26917131     0.13900
H1068       H  0.94289161  0.86519123  0.35827918     0.14500
C1069       C  0.86548828  0.88682336  0.41282907    -0.15100
C1070       C  0.86359070  0.88780579  0.45382584    -0.30300
H1071       H  0.88292420  0.90009294  0.39784379     0.13900
H1072       H  0.84524303  0.87582802  0.46877457     0.14500
C1073       C  0.80713220  0.75020948  0.18581371    -0.15100
C1074       C  0.82165213  0.77620238  0.19422496    -0.30300
H1075       H  0.79472351  0.73813603  0.20933261     0.13900
H1076       H  0.83463542  0.78785728  0.17085291     0.14500
C1077       C  0.80923753  0.72476837  0.40791384    -0.15100
C1078       C  0.82749170  0.70242055  0.42124826    -0.30300
H1079       H  0.79209965  0.71788111  0.38612589     0.13900
H1080       H  0.82369113  0.68041367  0.40740647     0.14500
C1081       C  0.74608353  0.83452303  0.27225800    -0.15100
C1082       C  0.74803686  0.83693044  0.23103796    -0.30300
H1083       H  0.72416235  0.83062786  0.28611522     0.13900
H1084       H  0.77005888  0.83722782  0.21647263     0.14500
C1085       C  0.89307025  0.71306176  0.32422812    -0.15100
C1086       C  0.88432766  0.68472770  0.33251091    -0.30300
H1087       H  0.91500739  0.71711614  0.31042630     0.13900
H1088       H  0.86358371  0.68095634  0.34945321     0.14500
Fe1089     Fe  0.82566580  0.76679414  0.80677125     1.65800
Fe1090     Fe  0.88118514  0.79764156  0.86109047     1.73200
Fe1091     Fe  0.84534348  0.84005740  0.79074238     1.54400
O1092       O  0.83969548  0.81857598  0.73410637    -0.80400
O1093       O  0.86100198  0.83078180  0.89596704    -0.78700
O1094       O  0.83717671  0.76882637  0.74721733    -0.82900
O1095       O  0.78774916  0.79171234  0.79249668    -0.77700
O1096       O  0.89044337  0.84202939  0.77726681    -0.79500
O1097       O  0.85842385  0.76414818  0.89236484    -0.82200
C1098       C  0.78078648  0.81931517  0.78749431     0.98500
C1099       C  0.83832186  0.79096488  0.72271571     1.06000
O1100       O  0.85007940  0.80191143  0.81958798    -1.11200
O1101       O  0.90241581  0.76463589  0.82704803    -0.73700
O1102       O  0.86123051  0.73678382  0.81627532    -0.77100
O1103       O  0.79862117  0.84099179  0.79628716    -0.77800
C1104       C  0.88979445  0.73969846  0.81817581     0.97400
O1105       O  0.81237918  0.76226862  0.86614265    -0.75800
O1106       O  0.90979076  0.82979303  0.83711772    -0.81000
C1107       C  0.85791597  0.85809873  0.88427600     1.00100
C1108       C  0.91196350  0.84173809  0.80225718     1.06000
O1109       O  0.85272669  0.86491462  0.84656906    -0.76600
C1110       C  0.83150415  0.75450821  0.89273766     1.04300
Fe1111     Fe  0.67576711  0.77096787  0.68739041     1.65800
Fe1112     Fe  0.62112195  0.79954336  0.63098770     1.73200
Fe1113     Fe  0.66052369  0.84553803  0.69451306     1.54400
O1114       O  0.66708858  0.82573992  0.75358944    -0.80400
O1115       O  0.64008941  0.83113891  0.59320720    -0.78700
O1116       O  0.65901630  0.77631969  0.74362154    -0.82900
O1117       O  0.71355959  0.79561004  0.70561474    -0.77700
O1118       O  0.61563928  0.85248879  0.70795303    -0.79500
O1119       O  0.64576258  0.76562114  0.60133467    -0.82200
C1120       C  0.72228194  0.82295931  0.70385953     0.98500
C1121       C  0.66555821  0.79826599  0.76656088     1.06000
O1122       O  0.65286804  0.80600691  0.67044150    -1.11200
O1123       O  0.60036972  0.76788535  0.66735539    -0.73700
O1124       O  0.64147558  0.74022565  0.67600051    -0.77100
O1125       O  0.70676408  0.84304775  0.68582188    -0.77800
C1126       C  0.61299257  0.74295340  0.67523846     0.97400
O1127       O  0.69158859  0.76434349  0.62955006    -0.75800
O1128       O  0.59195776  0.83148351  0.65539422    -0.81000
C1129       C  0.64873890  0.85800612  0.60031662     1.00100
C1130       C  0.59210370  0.84803581  0.68695187     1.06000
O1131       O  0.65501547  0.86754526  0.63644881    -0.76600
C1132       C  0.67297238  0.75613612  0.60230703     1.04300
Fe1133     Fe  0.31308621  0.77807977  0.94208659     1.65800
Fe1134     Fe  0.37483314  0.80022465  0.88738886     1.73200
Fe1135     Fe  0.34164844  0.84824255  0.95401574     1.54400
O1136       O  0.29497946  0.84690722  0.96513263    -0.80400
O1137       O  0.40960618  0.81678836  0.92342424    -0.78700
O1138       O  0.27702789  0.80714224  0.93185693    -0.82900
O1139       O  0.31154608  0.79167911  0.00100852    -0.77700
O1140       O  0.33894840  0.87165909  0.89734340    -0.79500
O1141       O  0.38315133  0.75738495  0.91055254    -0.82200
C1142       C  0.33083862  0.80371826  0.52471392     0.98500
C1143       C  0.27317673  0.82946338  0.95591765     1.06000
O1144       O  0.34284650  0.80904270  0.92662196    -1.11200
O1145       O  0.34474242  0.78244705  0.84678147    -0.73700
O1146       O  0.31029891  0.75900583  0.88515557    -0.77100
O1147       O  0.34812571  0.82486919  0.51214050    -0.77800
C1148       C  0.32398538  0.76310295  0.85181953     0.97400
O1149       O  0.34701179  0.74742535  0.95631796    -0.75800
O1150       O  0.36966902  0.84211619  0.85987325    -0.81000
C1151       C  0.41049346  0.84186391  0.94205115     1.00100
C1152       C  0.35539214  0.86679723  0.86545904     1.06000
O1153       O  0.38697933  0.85621661  0.95157007    -0.76600
C1154       C  0.37157882  0.74086576  0.93821921     1.04300
Fe1155     Fe  0.18633118  0.77838141  0.56213469     1.65800
Fe1156     Fe  0.12408171  0.79232986  0.61886546     1.73200
Fe1157     Fe  0.15031576  0.84492312  0.55353431     1.54400
O1158       O  0.19660375  0.84802871  0.54156830    -0.80400
O1159       O  0.08768808  0.80502764  0.58318005    -0.78700
O1160       O  0.21848012  0.81066014  0.57607107    -0.82900
O1161       O  0.18609953  0.79621212  0.50509146    -0.77700
O1162       O  0.15367037  0.86699522  0.60978823    -0.79500
O1163       O  0.12031586  0.74939997  0.59274932    -0.82200
C1164       C  0.15623175  0.80260079  0.98071522     0.98500
C1165       C  0.22002887  0.83306633  0.55151270     1.06000
O1166       O  0.15402345  0.80545945  0.57980801    -1.11200
O1167       O  0.15631814  0.77671832  0.65830124    -0.73700
O1168       O  0.19027885  0.75551097  0.61727543    -0.77100
O1169       O  0.13836693  0.82139100  0.99730850    -0.77800
C1170       C  0.17694972  0.75756125  0.65133750     0.97400
O1171       O  0.15550610  0.74643564  0.54386774    -0.75800
O1172       O  0.12583472  0.83483059  0.64784018    -0.81000
C1173       C  0.08297191  0.83022518  0.56613908     1.00100
C1174       C  0.13873868  0.86053180  0.64223429     1.06000
O1175       O  0.10419589  0.84853637  0.55857801    -0.76600
C1176       C  0.13226262  0.73638576  0.56200349     1.04300
Fe1177     Fe  0.32562218  0.73073527  0.69083977     1.65800
Fe1178     Fe  0.37899523  0.69980890  0.63462459     1.73200
Fe1179     Fe  0.34178860  0.65701542  0.70426259     1.54400
O1180       O  0.33531496  0.67904003  0.76111249    -0.80400
O1181       O  0.35928763  0.66621098  0.60034895    -0.78700
O1182       O  0.34367551  0.72772464  0.74656617    -0.82900
O1183       O  0.28844741  0.70668278  0.71220966    -0.77700
O1184       O  0.38676244  0.65216644  0.71753932    -0.79500
O1185       O  0.35401610  0.73259234  0.60363406    -0.82200
C1186       C  0.27986842  0.67926858  0.71305098     0.98500
C1187       C  0.33763420  0.70686150  0.77161010     1.06000
O1188       O  0.34825372  0.69518048  0.67592506    -1.11200
O1189       O  0.40048362  0.73307818  0.66780665    -0.73700
O1190       O  0.35947043  0.76097507  0.67592647    -0.77100
O1191       O  0.29528933  0.65845085  0.69619509    -0.77800
C1192       C  0.38792224  0.75817690  0.67521273     0.97400
O1193       O  0.30870430  0.73498496  0.63325836    -0.75800
O1194       O  0.40822125  0.66868108  0.66033231    -0.81000
C1195       C  0.35504333  0.63904224  0.61197415     1.00100
C1196       C  0.40922156  0.65439824  0.69388593     1.06000
O1197       O  0.34898583  0.63219746  0.64925247    -0.76600
C1198       C  0.32700978  0.74250093  0.60519594     1.04300
Fe1199     Fe  0.16701493  0.73402537  0.80691735     1.65800
Fe1200     Fe  0.11657134  0.70222942  0.86731708     1.73200
Fe1201     Fe  0.16062815  0.65797429  0.80655738     1.54400
O1202       O  0.16566599  0.67564146  0.74608767    -0.80400
O1203       O  0.13863943  0.67427247  0.90706272    -0.78700
O1204       O  0.15035561  0.72355843  0.75194962    -0.82900
O1205       O  0.20747070  0.71335561  0.79151300    -0.77700
O1206       O  0.11689440  0.64622890  0.79392491    -0.79500
O1207       O  0.13788400  0.73931961  0.89385865    -0.82200
C1208       C  0.21978223  0.68762438  0.79547437     0.98500
C1209       C  0.16061324  0.70200408  0.73094173     1.06000
O1210       O  0.14869417  0.69752080  0.82772907    -1.11200
O1211       O  0.09171311  0.73040393  0.83013883    -0.73700
O1212       O  0.12974262  0.76109859  0.81653457    -0.77100
O1213       O  0.20654972  0.66575124  0.81346062    -0.77800
C1214       C  0.10172487  0.75621217  0.82069962     0.97400
O1215       O  0.18254129  0.74538502  0.86313846    -0.75800
O1216       O  0.09128821  0.66661449  0.84544856    -0.81000
C1217       C  0.14850141  0.64761769  0.90182085     1.00100
C1218       C  0.09309197  0.64926261  0.81480076     1.06000
O1219       O  0.15638344  0.63756642  0.86640171    -0.76600
C1220       C  0.16383722  0.75169066  0.89112593     1.04300
Fe1221     Fe  0.97254988  0.43767332  0.93655016     1.65800
Fe1222     Fe  0.95633743  0.37855796  0.99805812     1.73200
Fe1223     Fe  0.90692843  0.40089828  0.92588694     1.54400
O1224       O  0.90428363  0.44737055  0.90947808    -0.80400
O1225       O  0.94589330  0.34015237  0.96538440    -0.78700
O1226       O  0.93984959  0.47017514  0.94596072    -0.82900
O1227       O  0.95711421  0.43508107  0.87852290    -0.77700
O1228       O  0.88213064  0.40609187  0.98028359    -0.79500
O1229       O  0.00037728  0.37418716  0.97648548    -0.82200
C1230       C  0.95267004  0.41054361  0.86043880     0.98500
C1231       C  0.91894214  0.47122865  0.91926983     1.06000
O1232       O  0.94487695  0.40613454  0.95499716    -1.11200
O1233       O  0.97067028  0.40842122  0.53514464    -0.73700
O1234       O  0.99303462  0.44402611  0.99244504    -0.77100
O1235       O  0.93261757  0.39219188  0.87329453    -0.77800
C1236       C  0.99143552  0.42729459  0.52793336     0.97400
O1237       O  0.00495259  0.40584932  0.92347007    -0.75800
O1238       O  0.91408291  0.37780931  0.52218041    -0.81000
C1239       C  0.92133900  0.33412358  0.94770157     1.00100
C1240       C  0.88915979  0.39117775  0.51439841     1.06000
O1241       O  0.90358670  0.35468103  0.93540404    -0.76600
C1242       C  0.01438982  0.38400578  0.94517710     1.04300
Fe1243     Fe  0.97966858  0.56306062  0.80496062     1.65800
Fe1244     Fe  0.95448445  0.62316281  0.75402417     1.73200
Fe1245     Fe  0.90851339  0.58932890  0.82182948     1.54400
O1246       O  0.90366855  0.54308129  0.81342777    -0.80400
O1247       O  0.92590924  0.65488113  0.77958447    -0.78700
O1248       O  0.95109296  0.52713132  0.82046241    -0.82900
O1249       O  0.97877668  0.57413983  0.86390244    -0.77700
O1250       O  0.88477843  0.60063485  0.76667968    -0.79500
O1251       O  0.98824611  0.63958353  0.78999400    -0.82200
C1252       C  0.95702365  0.57536348  0.88871901     0.98500
C1253       C  0.92281769  0.52368481  0.82596296     1.06000
O1254       O  0.94694462  0.59117575  0.79331726    -1.11200
O1255       O  0.98585255  0.59783237  0.72200771    -0.73700
O1256       O  0.98368440  0.55059855  0.74496579    -0.77100
O1257       O  0.92957180  0.57972464  0.87806832    -0.77800
C1258       C  0.99375873  0.57026508  0.72024956     0.97400
O1259       O  0.01306877  0.59606120  0.79686041    -0.75800
O1260       O  0.91983669  0.60756924  0.71810599    -0.81000
C1261       C  0.91296377  0.65694587  0.81382143     1.00100
C1262       C  0.89236813  0.60665905  0.72953133     1.06000
O1263       O  0.90950964  0.63439619  0.83706092    -0.76600
C1264       C  0.01183908  0.62484794  0.79878158     1.04300
Fe1265     Fe  0.52308031  0.56859731  0.68804170     1.65800
Fe1266     Fe  0.55013070  0.62670894  0.74018534     1.73200
Fe1267     Fe  0.59446074  0.59304017  0.67044859     1.54400
O1268       O  0.59831176  0.54659884  0.67818919    -0.80400
O1269       O  0.57814567  0.65843814  0.71390287    -0.78700
O1270       O  0.55054804  0.53308919  0.66834133    -0.82900
O1271       O  0.52260536  0.58305299  0.63050413    -0.77700
O1272       O  0.61941461  0.60288771  0.72528712    -0.79500
O1273       O  0.51554242  0.64423717  0.70623092    -0.82200
C1274       C  0.54379051  0.58354092  0.60476573     0.98500
C1275       C  0.57871284  0.52825299  0.66437121     1.06000
O1276       O  0.55656791  0.59551779  0.69990212    -1.11200
O1277       O  0.52006902  0.60023127  0.77244042    -0.73700
O1278       O  0.52136567  0.55361525  0.74698431    -0.77100
O1279       O  0.57180155  0.58521743  0.61444562    -0.77800
C1280       C  0.51252957  0.57250370  0.77342692     0.97400
O1281       O  0.49006070  0.60116288  0.70085970    -0.75800
O1282       O  0.58520499  0.61042476  0.77467419    -0.81000
C1283       C  0.59088430  0.66052113  0.67951586     1.00100
C1284       C  0.61245863  0.60867270  0.76273477     1.06000
O1285       O  0.59435619  0.63813247  0.65621452    -0.76600
C1286       C  0.49136006  0.62993360  0.69946543     1.04300
Fe1287     Fe  0.52270140  0.43216695  0.54945614     1.65800
Fe1288     Fe  0.54874276  0.36849349  0.51003887     1.73200
Fe1289     Fe  0.59122800  0.40554381  0.57970962     1.54400
O1290       O  0.59604776  0.45214608  0.57549009    -0.80400
O1291       O  0.57540079  0.33778848  0.54020550    -0.78700
O1292       O  0.54988106  0.46905068  0.56152343    -0.82900
O1293       O  0.51929054  0.42575176  0.60929999    -0.77700
O1294       O  0.61804355  0.39626842  0.52624372    -0.79500
O1295       O  0.51258656  0.35469165  0.54428202    -0.82200
C1296       C  0.53722148  0.41927870  0.63789014     0.98500
C1297       C  0.57603285  0.47271844  0.57635690     1.06000
O1298       O  0.55497534  0.40257298  0.54653150    -1.11200
O1299       O  0.52652483  0.40100304  0.97085904    -0.73700
O1300       O  0.52453194  0.43998139  0.48835596    -0.77100
O1301       O  0.56505613  0.41238668  0.63256885    -0.77800
C1302       C  0.51784444  0.42843179  0.96914286     0.97400
O1303       O  0.48914170  0.39921376  0.54259630    -0.75800
O1304       O  0.59127989  0.39190307  0.97098058    -0.81000
C1305       C  0.58917249  0.33743975  0.57376051     1.00100
C1306       C  0.61835078  0.39448564  0.98308627     1.06000
O1307       O  0.59257790  0.36078108  0.59503501    -0.76600
C1308       C  0.48921064  0.37078279  0.54936994     1.04300
Fe1309     Fe  0.81377764  0.22395870  0.92857802     1.65800
Fe1310     Fe  0.88173616  0.20261747  0.89252712     1.73200
Fe1311     Fe  0.84264115  0.15639372  0.95721969     1.54400
O1312       O  0.83846085  0.18169841  0.51033621    -0.80400
O1313       O  0.87285685  0.16254550  0.86088150    -0.78700
O1314       O  0.81437560  0.22155234  0.99052871    -0.82900
O1315       O  0.77960495  0.19256661  0.92614658    -0.77700
O1316       O  0.88767798  0.14727742  0.96322921    -0.79500
O1317       O  0.85914267  0.22809374  0.85042208    -0.82200
C1318       C  0.77527137  0.17362135  0.95435884     0.98500
C1319       C  0.82507645  0.20694041  0.51682696     1.06000
O1320       O  0.84622488  0.19425734  0.92621436    -1.11200
O1321       O  0.89105185  0.24245331  0.92292412    -0.73700
O1322       O  0.84404564  0.25975666  0.93177246    -0.77100
O1323       O  0.79611648  0.15592265  0.96513569    -0.77800
C1324       C  0.87252263  0.26354848  0.93143628     0.97400
O1325       O  0.81065695  0.22883373  0.86685415    -0.75800
O1326       O  0.91311011  0.18135319  0.92826221    -0.81000
C1327       C  0.85857734  0.13773150  0.86777228     1.00100
C1328       C  0.91214484  0.15866801  0.95140720     1.06000
O1329       O  0.84397357  0.13220060  0.90120484    -0.76600
C1330       C  0.83234204  0.23640301  0.84408141     1.04300
Fe1331     Fe  0.67519951  0.22657825  0.56465546     1.65800
Fe1332     Fe  0.62311800  0.19881153  0.62565649     1.73200
Fe1333     Fe  0.65580227  0.15325934  0.55639708     1.54400
O1334       O  0.66081732  0.17927030  0.99689653    -0.80400
O1335       O  0.64338992  0.16652355  0.66047392    -0.78700
O1336       O  0.65435240  0.22328030  0.51122633    -0.82900
O1337       O  0.71071293  0.20005495  0.54171547    -0.77700
O1338       O  0.61031619  0.15061791  0.54598759    -0.79500
O1339       O  0.65036415  0.23141570  0.65222038    -0.82200
C1340       C  0.71825026  0.17221847  0.54254047     0.98500
C1341       C  0.66053866  0.20731636  0.98597005     1.06000
O1342       O  0.65210638  0.19215217  0.58300939    -1.11200
O1343       O  0.60141587  0.23101827  0.59152720    -0.73700
O1344       O  0.64247394  0.25843113  0.58055112    -0.77100
O1345       O  0.70250272  0.15274591  0.56175242    -0.77800
C1346       C  0.61393634  0.25576698  0.58228617     0.97400
O1347       O  0.69488789  0.23146024  0.62031726    -0.75800
O1348       O  0.59195963  0.16770638  0.60463485    -0.81000
C1349       C  0.64566288  0.13880987  0.65116703     1.00100
C1350       C  0.58896270  0.15368598  0.57122519     1.06000
O1351       O  0.64932898  0.12989736  0.61395903    -0.76600
C1352       C  0.67765934  0.24020669  0.64882155     1.04300
Fe1353     Fe  0.02265542  0.07316745  0.93893415     1.65800
Fe1354     Fe  0.05458753  0.12677439  0.99498295     1.73200
Fe1355     Fe  0.09478860  0.09348753  0.92057812     1.54400
O1356       O  0.09623326  0.04737694  0.92917179    -0.80400
O1357       O  0.08372672  0.15772218  0.96820068    -0.78700
O1358       O  0.04815315  0.03706995  0.91604175    -0.82900
O1359       O  0.02202262  0.09039224  0.88253386    -0.77700
O1360       O  0.12190462  0.10116560  0.97343589    -0.79500
O1361       O  0.01968284  0.14817735  0.96577601    -0.82200
C1362       C  0.04257838  0.08750197  0.85621608     0.98500
C1363       C  0.07611435  0.03060557  0.91360929     1.06000
O1364       O  0.05776627  0.09745347  0.95169635    -1.11200
O1365       O  0.02943255  0.08094339  0.53808257    -0.73700
O1366       O  0.02094655  0.05558622  0.99654834    -0.77100
O1367       O  0.07073334  0.08666322  0.86524181    -0.77800
C1368       C  0.00731991  0.06396730  0.53012953     0.97400
O1369       O  0.99204933  0.10687217  0.95584043    -0.75800
O1370       O  0.08491135  0.11341329  0.52846971    -0.81000
C1371       C  0.09508949  0.16035816  0.93284700     1.00100
C1372       C  0.11033415  0.10159010  0.51960570     1.06000
O1373       O  0.09615826  0.13872373  0.90778129    -0.76600
C1374       C  0.99461817  0.13550048  0.95877596     1.04300
Fe1375     Fe  0.02564175  0.93990497  0.81041128     1.65800
Fe1376     Fe  0.04507823  0.87582183  0.76020536     1.73200
Fe1377     Fe  0.09255852  0.90685408  0.82878309     1.54400
O1378       O  0.09428862  0.95387401  0.83612673    -0.80400
O1379       O  0.05590360  0.84103808  0.79942217    -0.78700
O1380       O  0.05764298  0.97202604  0.79733351    -0.82900
O1381       O  0.03725423  0.94315817  0.87033274    -0.77700
O1382       O  0.11797695  0.90651062  0.77396331    -0.79500
O1383       O  0.00102600  0.87247646  0.77987821    -0.82200
C1384       C  0.04649383  0.92248192  0.89358485     0.98500
C1385       C  0.07809272  0.97585669  0.82388053     1.06000
O1386       O  0.05464066  0.90763664  0.79892883    -1.11200
O1387       O  0.03312631  0.90641371  0.71675792    -0.73700
O1388       O  0.00865839  0.94154696  0.75235676    -0.77100
O1389       O  0.06734322  0.90423172  0.88278446    -0.77800
C1390       C  0.01452894  0.92793835  0.71954212     0.97400
O1391       O  0.99313299  0.90886211  0.82601476    -0.75800
O1392       O  0.08816109  0.87625971  0.73647984    -0.81000
C1393       C  0.07974463  0.83835550  0.82024085     1.00100
C1394       C  0.11314971  0.88966424  0.74263815     1.06000
O1395       O  0.09612774  0.86065963  0.82961747    -0.76600
C1396       C  0.98529897  0.88494206  0.80755230     1.04300
Fe1397     Fe  0.17995214  0.27286675  0.93774094     1.65800
Fe1398     Fe  0.12266032  0.30191141  0.88581823     1.73200
Fe1399     Fe  0.15683458  0.34443522  0.95633521     1.54400
O1400       O  0.16280414  0.31301882  0.51069855    -0.80400
O1401       O  0.14085115  0.33640102  0.85176717    -0.78700
O1402       O  0.16592145  0.27236722  0.99552220    -0.82900
O1403       O  0.21612173  0.29996238  0.95705426    -0.77700
O1404       O  0.11186574  0.34346203  0.97182998    -0.79500
O1405       O  0.14753332  0.27035055  0.85355304    -0.82200
C1406       C  0.22111265  0.32826099  0.96069728     0.98500
C1407       C  0.16732043  0.28517971  0.51980055     1.06000
O1408       O  0.15386674  0.30696426  0.92622663    -1.11200
O1409       O  0.10385278  0.26761289  0.91986217    -0.73700
O1410       O  0.14634100  0.24105432  0.92548919    -0.77100
O1411       O  0.20288358  0.34793312  0.94669932    -0.77800
C1412       C  0.11766696  0.24302752  0.92684768     0.97400
O1413       O  0.19424831  0.27039459  0.87829699    -0.75800
O1414       O  0.09242360  0.33211542  0.91172711    -0.81000
C1415       C  0.14220346  0.36359926  0.86418953     1.00100
C1416       C  0.08997659  0.34294533  0.94727946     1.06000
O1417       O  0.14667323  0.37012021  0.90205539    -0.76600
C1418       C  0.17486525  0.26169897  0.85236424     1.04300
Fe1419     Fe  0.31464965  0.28132560  0.58720952     1.65800
Fe1420     Fe  0.37633751  0.31129035  0.63433202     1.73200
Fe1421     Fe  0.33757336  0.35203532  0.56255167     1.54400
O1422       O  0.34381143  0.32392100  0.99549606    -0.80400
O1423       O  0.36207703  0.35093618  0.66473152    -0.78700
O1424       O  0.31893738  0.28441489  0.52561001    -0.82900
O1425       O  0.27632738  0.30785275  0.58442250    -0.77700
O1426       O  0.38197927  0.36451449  0.55957272    -0.79500
O1427       O  0.35321794  0.28297003  0.67375486    -0.82200
C1428       C  0.27191797  0.32788729  0.55744534     0.98500
C1429       C  0.33033584  0.29858879  0.99010805     1.06000
O1430       O  0.34283473  0.31500796  0.59490103    -1.11200
O1431       O  0.39224458  0.27297834  0.60566580    -0.73700
O1432       O  0.34939961  0.24986150  0.58750886    -0.77100
O1433       O  0.29147363  0.34815584  0.55075089    -0.77800
C1434       C  0.37790891  0.25012504  0.59241101     0.97400
O1435       O  0.30757512  0.27483831  0.64804814    -0.75800
O1436       O  0.40761383  0.33528299  0.60150906    -0.81000
C1437       C  0.34560646  0.37342981  0.65375701     1.00100
C1438       C  0.40645527  0.35557318  0.57462251     1.06000
O1439       O  0.33352591  0.37575477  0.61800474    -0.76600
C1440       C  0.32759730  0.27030063  0.67469289     1.04300
Fe1441     Fe  0.02491105  0.57052706  0.55852752     1.65800
Fe1442     Fe  0.05381530  0.62448113  0.50028076     1.73200
Fe1443     Fe  0.09782784  0.59022962  0.56967487     1.54400
O1444       O  0.07662472  0.58387729  0.62748583    -0.80400
O1445       O  0.07988842  0.60858349  0.96954633    -0.78700
O1446       O  0.02728219  0.58819135  0.61438227    -0.82900
O1447       O  0.05083642  0.53426306  0.57984425    -0.77700
O1448       O  0.09917015  0.63564361  0.58236884    -0.79500
O1449       O  0.01598835  0.59310232  0.97283165    -0.82200
C1450       C  0.07876455  0.52751715  0.58094036     0.98500
C1451       C  0.04890179  0.58475143  0.63888416     1.06000
O1452       O  0.05944773  0.59435840  0.54227960    -1.11200
O1453       O  0.02161699  0.64573944  0.53437931    -0.73700
O1454       O  0.99412904  0.60431793  0.54413147    -0.77100
O1455       O  0.09849739  0.54367931  0.56298167    -0.77800
C1456       C  0.99676465  0.63292793  0.54200593     0.97400
O1457       O  0.02020942  0.55309058  0.50121915    -0.75800
O1458       O  0.08538166  0.65511152  0.52298305    -0.81000
C1459       C  0.10725083  0.60353335  0.97897716     1.00100
C1460       C  0.09678581  0.65778061  0.55824328     1.06000
O1461       O  0.12180481  0.59659575  0.51262475    -0.76600
C1462       C  0.01009349  0.56492190  0.97257351     1.04300
Fe1463     Fe  0.02969360  0.43556357  0.69882157     1.65800
Fe1464     Fe  0.05002130  0.36755014  0.73625829     1.73200
Fe1465     Fe  0.09767672  0.40624961  0.67298586     1.54400
O1466       O  0.07334088  0.40602861  0.61839478    -0.80400
O1467       O  0.08979912  0.37593409  0.76853333    -0.78700
O1468       O  0.03329142  0.43417305  0.63712864    -0.82900
O1469       O  0.06115751  0.46970171  0.70136676    -0.77700
O1470       O  0.10654706  0.36108377  0.66766924    -0.79500
O1471       O  0.02457317  0.39066945  0.77787036    -0.82200
C1472       C  0.08035752  0.47358662  0.67339176     0.98500
C1473       C  0.04897607  0.42058926  0.61037258     1.06000
O1474       O  0.05919314  0.40300676  0.70267017    -1.11200
O1475       O  0.01039754  0.35832565  0.70549051    -0.73700
O1476       O  0.99377786  0.40546070  0.69509634    -0.77100
O1477       O  0.09862261  0.45277910  0.66440121    -0.77800
C1478       C  0.98964650  0.37696751  0.69608787     0.97400
O1479       O  0.02370973  0.43915413  0.76034054    -0.75800
O1480       O  0.07102616  0.33610365  0.70047243    -0.81000
C1481       C  0.11471756  0.39015271  0.76258858     1.00100
C1482       C  0.09419305  0.33676209  0.67832921     1.06000
O1483       O  0.12084022  0.40506789  0.72960218    -0.76600
C1484       C  0.01606913  0.41758149  0.78343516     1.04300
Fe1485     Fe  0.97675008  0.94051799  0.54609808     1.65800
Fe1486     Fe  0.95612077  0.87736215  0.49460171     1.73200
Fe1487     Fe  0.91110671  0.90664883  0.57117159     1.54400
O1488       O  0.93607001  0.90733699  0.62470927    -0.80400
O1489       O  0.91368100  0.88841084  0.97364207    -0.78700
O1490       O  0.97566310  0.93606268  0.60727941    -0.82900
O1491       O  0.94507168  0.97464614  0.55007217    -0.77700
O1492       O  0.90951661  0.86099689  0.57591025    -0.79500
O1493       O  0.97871229  0.90091796  0.97520011    -0.82200
C1494       C  0.92306878  0.97553680  0.57484139     0.98500
C1495       C  0.96018948  0.92169128  0.63332503     1.06000
O1496       O  0.94783809  0.90801733  0.53770510    -1.11200
O1497       O  0.99502450  0.86364210  0.52442304    -0.73700
O1498       O  0.01148595  0.90883453  0.54629550    -0.77100
O1499       O  0.90585056  0.95295882  0.58003600    -0.77800
C1500       C  0.01522579  0.88062201  0.54001403     0.97400
O1501       O  0.97918914  0.94714196  0.48497011    -0.75800
O1502       O  0.93277664  0.84225562  0.52202610    -0.81000
C1503       C  0.88634061  0.88973772  0.98538747     1.00100
C1504       C  0.91654561  0.83922024  0.55341236     1.06000
O1505       O  0.88492875  0.90359401  0.51723471    -0.76600
C1506       C  0.98559163  0.92877997  0.97380634     1.04300
Fe1507     Fe  0.97385006  0.07087030  0.69023530     1.65800
Fe1508     Fe  0.94445449  0.12669559  0.74410120     1.73200
Fe1509     Fe  0.90162170  0.09182277  0.67410833     1.54400
O1510       O  0.92351840  0.08228644  0.61817346    -0.80400
O1511       O  0.91070836  0.10756127  0.77834778    -0.78700
O1512       O  0.97239890  0.08698091  0.63313386    -0.82900
O1513       O  0.94753836  0.03424938  0.67082466    -0.77700
O1514       O  0.90214469  0.13692003  0.65837955    -0.79500
O1515       O  0.97663273  0.10167152  0.77565657    -0.82200
C1516       C  0.91950045  0.02809595  0.66796541     0.98500
C1517       C  0.95140684  0.08215022  0.60803411     1.06000
O1518       O  0.93936916  0.09558519  0.70353910    -1.11200
O1519       O  0.97809804  0.14673379  0.71013620    -0.73700
O1520       O  0.00502764  0.10467588  0.70302163    -0.77100
O1521       O  0.89938756  0.04529831  0.68344035    -0.77800
C1522       C  0.00277139  0.13335776  0.70270102     0.97400
O1523       O  0.97777292  0.05535182  0.74900154    -0.75800
O1524       O  0.91371964  0.15672390  0.71832589    -0.81000
C1525       C  0.88345029  0.10705040  0.76646303     1.00100
C1526       C  0.90307536  0.15909142  0.68258551     1.06000
O1527       O  0.87649174  0.10236297  0.72877521    -0.76600
C1528       C  0.98591406  0.07440635  0.77577096     1.04300
Fe1529     Fe  0.82917373  0.72859987  0.54351358     1.65800
Fe1530     Fe  0.88441790  0.70052921  0.60203809     1.73200
Fe1531     Fe  0.84825750  0.65479915  0.53682674     1.54400
O1532       O  0.80249249  0.65465656  0.54890991    -0.80400
O1533       O  0.91383532  0.66977755  0.57746491    -0.78700
O1534       O  0.79213385  0.70167879  0.52901693    -0.82900
O1535       O  0.84245881  0.72425115  0.48402629    -0.77700
O1536       O  0.85833395  0.63170866  0.59215193    -0.79500
O1537       O  0.90485284  0.73292110  0.56649356    -0.82200
C1538       C  0.83766198  0.69891769  0.97919917     0.98500
C1539       C  0.78528374  0.67375747  0.53163071     1.06000
O1540       O  0.85366306  0.69437141  0.56097291    -1.11200
O1541       O  0.85950399  0.73328452  0.63196653    -0.73700
O1542       O  0.81430018  0.73541327  0.60231841    -0.77100
O1543       O  0.85561294  0.67906091  0.99350781    -0.77800
C1544       C  0.83222579  0.74211516  0.63107751     0.97400
O1545       O  0.86369706  0.75975710  0.55238151    -0.75800
O1546       O  0.86622480  0.66714155  0.63931870    -0.81000
C1547       C  0.91517243  0.65565713  0.54401966     1.00100
C1548       C  0.86391887  0.63946734  0.62902390     1.06000
O1549       O  0.89271834  0.65220277  0.52080649    -0.76600
C1550       C  0.89222787  0.75712073  0.55505485     1.04300
Fe1551     Fe  0.69029966  0.72599383  0.93812832     1.65800
Fe1552     Fe  0.62929599  0.71123412  0.87926332     1.73200
Fe1553     Fe  0.65189690  0.66108721  0.95038204     1.54400
O1554       O  0.69839796  0.65654454  0.96283261    -0.80400
O1555       O  0.59113583  0.70190031  0.91338391    -0.78700
O1556       O  0.72203715  0.69249150  0.92728600    -0.82900
O1557       O  0.68933370  0.71088522  0.99683945    -0.77700
O1558       O  0.65398713  0.63596455  0.89572751    -0.79500
O1559       O  0.62675663  0.75521304  0.90141952    -0.82200
C1560       C  0.66980590  0.69590901  0.52052455     0.98500
C1561       C  0.72260515  0.67018405  0.95216444     1.06000
O1562       O  0.65756190  0.69899101  0.92117142    -1.11200
O1563       O  0.66362382  0.72284910  0.84077735    -0.73700
O1564       O  0.69533270  0.74699667  0.88172487    -0.77100
O1565       O  0.65313998  0.67421100  0.50824305    -0.77800
C1566       C  0.68301758  0.74325459  0.84729844     0.97400
O1567       O  0.65956555  0.75899738  0.95302192    -0.75800
O1568       O  0.62930615  0.66785319  0.85378758    -0.81000
C1569       C  0.58506562  0.67811586  0.93314554     1.00100
C1570       C  0.64013727  0.64172879  0.86211754     1.06000
O1571       O  0.60551338  0.66008040  0.94498073    -0.76600
C1572       C  0.63737585  0.76883824  0.93246361     1.04300
Fe1573     Fe  0.47730726  0.93141690  0.68646052     1.65800
Fe1574     Fe  0.44975661  0.87469522  0.74246306     1.73200
Fe1575     Fe  0.40478794  0.90909546  0.67320897     1.54400
O1576       O  0.40266854  0.95573686  0.68047128    -0.80400
O1577       O  0.42221559  0.84266588  0.71597619    -0.78700
O1578       O  0.45031534  0.96715604  0.66627534    -0.82900
O1579       O  0.47580857  0.91559938  0.62926506    -0.77700
O1580       O  0.38011934  0.90067324  0.72814356    -0.79500
O1581       O  0.48503554  0.85639979  0.70953810    -0.82200
C1582       C  0.45373352  0.91590956  0.60487582     0.98500
C1583       C  0.42226360  0.97309736  0.66433428     1.06000
O1584       O  0.44335706  0.90555803  0.70123035    -1.11200
O1585       O  0.47967753  0.90193824  0.77396013    -0.73700
O1586       O  0.48094898  0.94758986  0.74474137    -0.77100
O1587       O  0.42610688  0.91572536  0.61631175    -0.77800
C1588       C  0.48849306  0.92933388  0.77286881     0.97400
O1589       O  0.51030634  0.89906874  0.69953188    -0.75800
O1590       O  0.41387344  0.89072148  0.77719517    -0.81000
C1591       C  0.40832747  0.84107818  0.68236355     1.00100
C1592       C  0.38669760  0.89433174  0.76538755     1.06000
O1593       O  0.40336092  0.86387398  0.66010327    -0.76600
C1594       C  0.50912926  0.87034368  0.70058217     1.04300
Fe1595     Fe  0.47074687  0.07392650  0.55696625     1.65800
Fe1596     Fe  0.44862722  0.14031422  0.51722627     1.73200
Fe1597     Fe  0.39946504  0.09794242  0.57353126     1.54400
O1598       O  0.40230138  0.05141736  0.58466786    -0.80400
O1599       O  0.42325672  0.17001101  0.55072176    -0.78700
O1600       O  0.44231716  0.03752288  0.55065473    -0.82900
O1601       O  0.46244680  0.07540661  0.61770989    -0.77700
O1602       O  0.38170434  0.09569075  0.51365981    -0.79500
O1603       O  0.48419879  0.15208851  0.55359824    -0.82200
C1604       C  0.44386554  0.08784397  0.64205219     0.98500
C1605       C  0.42208870  0.03178681  0.57657630     1.06000
O1606       O  0.43955057  0.10422971  0.54933012    -1.11200
O1607       O  0.48153695  0.11051199  0.98387842    -0.73700
O1608       O  0.48052622  0.07050274  0.49669939    -0.77100
O1609       O  0.41948556  0.10118428  0.63083127    -0.77800
C1610       C  0.49062436  0.08314185  0.98384862     0.97400
O1611       O  0.50420508  0.10640036  0.56449948    -0.75800
O1612       O  0.41645688  0.11829213  0.97511348    -0.81000
C1613       C  0.39815627  0.16778299  0.56838623     1.00100
C1614       C  0.39037345  0.10686865  0.98036585     1.06000
O1615       O  0.38604673  0.14254566  0.57544165    -0.76600
C1616       C  0.50562669  0.13516686  0.56501343     1.04300
Fe1617     Fe  0.30347512  0.22389422  0.82060471     1.65800
Fe1618     Fe  0.36388002  0.20836914  0.87910640     1.73200
Fe1619     Fe  0.33843608  0.15698581  0.81261892     1.54400
O1620       O  0.29220800  0.15525347  0.79730663    -0.80400
O1621       O  0.40027235  0.19637351  0.84390065    -0.78700
O1622       O  0.27119634  0.19183020  0.83382729    -0.82900
O1623       O  0.30561210  0.20630991  0.76339351    -0.77700
O1624       O  0.33165949  0.13519940  0.86893919    -0.79500
O1625       O  0.36840278  0.25162390  0.85524766    -0.82200
C1626       C  0.33054499  0.20222947  0.74605312     0.98500
C1627       C  0.26902258  0.17041685  0.80810334     1.06000
O1628       O  0.33480896  0.19624546  0.83897491    -1.11200
O1629       O  0.33076969  0.22237503  0.91754085    -0.73700
O1630       O  0.29866560  0.24577786  0.87594518    -0.77100
O1631       O  0.34804544  0.18122200  0.75856092    -0.77800
C1632       C  0.31126855  0.24250769  0.91028516     0.97400
O1633       O  0.33503588  0.25576398  0.80442193    -0.75800
O1634       O  0.36123340  0.16595806  0.90646406    -0.81000
C1635       C  0.40542323  0.17037002  0.82987180     1.00100
C1636       C  0.34615673  0.14154688  0.90177601     1.06000
O1637       O  0.38438263  0.15183031  0.82230272    -0.76600
C1638       C  0.35774513  0.26518796  0.82418008     1.04300
Fe1639     Fe  0.17491284  0.22338972  0.69019298     1.65800
Fe1640     Fe  0.12064572  0.19273224  0.63420929     1.73200
Fe1641     Fe  0.15214143  0.15202177  0.70965179     1.54400
O1642       O  0.19830857  0.14878953  0.70198225    -0.80400
O1643       O  0.08851896  0.16517304  0.66142339    -0.78700
O1644       O  0.20981611  0.19692047  0.71392886    -0.82900
O1645       O  0.15734762  0.22517223  0.74634125    -0.77700
O1646       O  0.14325727  0.12451765  0.65706865    -0.79500
O1647       O  0.10046605  0.22884028  0.66220231    -0.82200
C1648       C  0.15996197  0.20474525  0.77300568     0.98500
C1649       C  0.21553840  0.16878454  0.71718308     1.06000
O1650       O  0.14960373  0.18893620  0.67781466    -1.11200
O1651       O  0.14826009  0.22194739  0.60188715    -0.73700
O1652       O  0.19292622  0.22370957  0.63291988    -0.77100
O1653       O  0.15983528  0.17642673  0.76449638    -0.77800
C1654       C  0.17559834  0.23061617  0.60368475     0.97400
O1655       O  0.14260921  0.25504049  0.67214543    -0.75800
O1656       O  0.13962111  0.15651789  0.60454866    -0.81000
C1657       C  0.08543933  0.15451315  0.69712025     1.00100
C1658       C  0.13988303  0.12978653  0.61872154     1.06000
O1659       O  0.10698498  0.15281293  0.72219691    -0.76600
C1660       C  0.11401098  0.25351627  0.66892197     1.04300
Fe1661     Fe  0.52016392  0.92902295  0.93872531     1.65800
Fe1662     Fe  0.55150662  0.87423910  0.99342183     1.73200
Fe1663     Fe  0.59271299  0.91009770  0.92227716     1.54400
O1664       O  0.57030716  0.91790268  0.86631448    -0.80400
O1665       O  0.58049484  0.89279354  0.53141828    -0.78700
O1666       O  0.52106056  0.91454989  0.88092636    -0.82900
O1667       O  0.54538287  0.96640726  0.91954816    -0.77700
O1668       O  0.59383171  0.86501678  0.90761159    -0.79500
O1669       O  0.51547288  0.89693490  0.52242558    -0.82200
C1670       C  0.57322962  0.97341757  0.91732216     0.98500
C1671       C  0.54248578  0.91755200  0.85583079     1.06000
O1672       O  0.55521242  0.90497699  0.95165174    -1.11200
O1673       O  0.51839740  0.85260344  0.96049071    -0.73700
O1674       O  0.49016542  0.89369374  0.95165180    -0.77100
O1675       O  0.59373766  0.95637004  0.93172399    -0.77800
C1676       C  0.49332312  0.86497043  0.95233971     0.97400
O1677       O  0.51724075  0.94436928  0.99734963    -0.75800
O1678       O  0.58326540  0.84521500  0.96808361    -0.81000
C1679       C  0.60777063  0.89893605  0.52300551     1.00100
C1680       C  0.59409967  0.84315361  0.93241259     1.06000
O1681       O  0.61828654  0.90170163  0.97658021    -0.76600
C1682       C  0.50589978  0.92406958  0.51921373     1.04300
Fe1683     Fe  0.51729086  0.06497572  0.81433233     1.65800
Fe1684     Fe  0.53154000  0.12990042  0.76261232     1.73200
Fe1685     Fe  0.58548013  0.09887243  0.82203646     1.54400
O1686       O  0.56480482  0.10555278  0.87893177    -0.80400
O1687       O  0.57052967  0.12241952  0.72780246    -0.78700
O1688       O  0.53058507  0.06830054  0.87386906    -0.82900
O1689       O  0.54972934  0.03299922  0.80330326    -0.77700
O1690       O  0.59352939  0.14514709  0.81530241    -0.79500
O1691       O  0.50782524  0.10177105  0.72558517    -0.82200
C1692       C  0.57068203  0.03020289  0.82900897     0.98500
C1693       C  0.54384487  0.08882656  0.89405987     1.06000
O1694       O  0.54455212  0.09788661  0.79900991    -1.11200
O1695       O  0.49228363  0.13792797  0.79452831    -0.73700
O1696       O  0.48204421  0.09425820  0.82646918    -0.77100
O1697       O  0.58699460  0.05275650  0.83810279    -0.77800
C1698       C  0.47533410  0.12121964  0.81634940     0.97400
O1699       O  0.50005765  0.05790327  0.75745108    -0.75800
O1700       O  0.55034753  0.16453301  0.79516709    -0.81000
C1701       C  0.59510034  0.10707599  0.72985098     1.00100
C1702       C  0.57676546  0.16770592  0.80821383     1.06000
O1703       O  0.60392324  0.09351549  0.76268585    -0.76600
C1704       C  0.49560694  0.07601091  0.72834299     1.04300
Fe1705     Fe  0.81309303  0.28072567  0.68991695     1.65800
Fe1706     Fe  0.87343450  0.29494635  0.62991263     1.73200
Fe1707     Fe  0.85205660  0.34508129  0.70163775     1.54400
O1708       O  0.80577241  0.34925542  0.71696793    -0.80400
O1709       O  0.91185231  0.30423630  0.66324633    -0.78700
O1710       O  0.78186590  0.31460427  0.68004070    -0.82900
O1711       O  0.81592577  0.29568207  0.74828098    -0.77700
O1712       O  0.84795591  0.37013101  0.64745342    -0.79500
O1713       O  0.87612223  0.25050293  0.65150939    -0.82200
C1714       C  0.84043668  0.29952047  0.76670251     0.98500
C1715       C  0.78144131  0.33603390  0.70598096     1.06000
O1716       O  0.84583449  0.30728369  0.67236926    -1.11200
O1717       O  0.83875621  0.28380693  0.59192701    -0.73700
O1718       O  0.80625273  0.26103653  0.63359534    -0.77100
O1719       O  0.85941325  0.31906252  0.75412703    -0.77800
C1720       C  0.81784546  0.26501585  0.59875855     0.97400
O1721       O  0.84335720  0.24690910  0.70330905    -0.75800
O1722       O  0.87285379  0.33853282  0.60526130    -0.81000
C1723       C  0.91843645  0.32881456  0.68070105     1.00100
C1724       C  0.86159147  0.36444748  0.61369952     1.06000
O1725       O  0.89830834  0.34708909  0.69280554    -0.76600
C1726       C  0.86523203  0.23672982  0.68242338     1.04300
Fe1727     Fe  0.68697271  0.27800155  0.81668333     1.65800
Fe1728     Fe  0.62025915  0.29793318  0.85990771     1.73200
Fe1729     Fe  0.65475921  0.34554518  0.79244761     1.54400
O1730       O  0.70098069  0.34831320  0.78409806    -0.80400
O1731       O  0.58580743  0.31944199  0.82792708    -0.78700
O1732       O  0.72169296  0.30962366  0.81623647    -0.82900
O1733       O  0.68376706  0.28172746  0.75524318    -0.77700
O1734       O  0.65406203  0.36961734  0.84798223    -0.79500
O1735       O  0.61018005  0.25824853  0.82962924    -0.82200
C1736       C  0.66943553  0.29750328  0.72939077     0.98500
C1737       C  0.72369506  0.33225717  0.79257460     1.06000
O1738       O  0.65401397  0.30732257  0.82316387    -1.11200
O1739       O  0.64582398  0.27166172  0.89873998    -0.73700
O1740       O  0.69338294  0.27090574  0.87774080    -0.77100
O1741       O  0.65439263  0.32129009  0.73830385    -0.77800
C1742       C  0.67281768  0.26267458  0.90201860     0.97400
O1743       O  0.65673525  0.24173373  0.81506846    -0.75800
O1744       O  0.63002883  0.33785363  0.89177953    -0.81000
C1745       C  0.58524005  0.34082651  0.80237411     1.00100
C1746       C  0.64222320  0.36346056  0.88295841     1.06000
O1747       O  0.60908283  0.35196647  0.78791876    -0.76600
C1748       C  0.62841218  0.23741228  0.81885862     1.04300
Fe1749     Fe  0.47881695  0.57012441  0.94020215     1.65800
Fe1750     Fe  0.45509655  0.62974912  0.99313792     1.73200
Fe1751     Fe  0.40948657  0.59923282  0.92174754     1.54400
O1752       O  0.43149995  0.58981371  0.86625902    -0.80400
O1753       O  0.41183655  0.60881352  0.52676262    -0.78700
O1754       O  0.48033291  0.58385954  0.88218309    -0.82900
O1755       O  0.44951148  0.53633517  0.92140295    -0.77700
O1756       O  0.41283241  0.64481401  0.90821138    -0.79500
O1757       O  0.47825437  0.60286222  0.52689518    -0.82200
C1758       C  0.42123434  0.53301588  0.91690717     0.98500
C1759       C  0.45913521  0.58547566  0.85657664     1.06000
O1760       O  0.44730295  0.59936462  0.95175140    -1.11200
O1761       O  0.49256367  0.64580873  0.96153234    -0.73700
O1762       O  0.51332791  0.60037915  0.95281869    -0.77100
O1763       O  0.40247224  0.55287633  0.92909268    -0.77800
C1764       C  0.51535115  0.62901715  0.95453705     0.97400
O1765       O  0.47974439  0.55521469  0.99924034    -0.75800
O1766       O  0.42809662  0.66315261  0.96752007    -0.81000
C1767       C  0.38506658  0.60951050  0.51288296     1.00100
C1768       C  0.41551613  0.66644306  0.93315580     1.06000
O1769       O  0.38463801  0.60974585  0.97574608    -0.76600
C1770       C  0.48759288  0.57572589  0.52360432     1.04300
Fe1771     Fe  0.47499293  0.42630191  0.80412325     1.65800
Fe1772     Fe  0.43867920  0.37049867  0.75517039     1.73200
Fe1773     Fe  0.40443491  0.40744469  0.83372283     1.54400
O1774       O  0.43169315  0.41136128  0.88561683    -0.80400
O1775       O  0.40037506  0.38846626  0.72691074    -0.78700
O1776       O  0.47931293  0.41340232  0.86240844    -0.82900
O1777       O  0.45264522  0.46453194  0.82436858    -0.77700
O1778       O  0.40109280  0.36184643  0.84537762    -0.79500
O1779       O  0.46743190  0.39537311  0.71788487    -0.82200
C1780       C  0.42623775  0.47211896  0.83522932     0.98500
C1781       C  0.46017338  0.41346643  0.89098701     1.06000
O1782       O  0.43877496  0.40194758  0.79750590    -1.11200
O1783       O  0.47594583  0.34993127  0.78224763    -0.73700
O1784       O  0.50420858  0.39122828  0.78787933    -0.77100
O1785       O  0.40375798  0.45447667  0.83143843    -0.77800
C1786       C  0.50135628  0.36255769  0.78818391     0.97400
O1787       O  0.47247105  0.44092344  0.74575756    -0.75800
O1788       O  0.41095230  0.34076982  0.78563895    -0.81000
C1789       C  0.37653209  0.39852150  0.74412705     1.00100
C1790       C  0.40064304  0.33952882  0.82150360     1.06000
O1791       O  0.37531522  0.40453429  0.78253475    -0.76600
C1792       C  0.47710434  0.42245983  0.71725633     1.04300
C1793       C  0.41113539  0.50645121  0.89253104    -0.15100
C1794       C  0.42341807  0.50216982  0.85503203    -0.30300
H1795       H  0.39688424  0.48931886  0.90644089     0.13900
H1796       H  0.43842326  0.51961829  0.84331157     0.14500
C1797       C  0.55646970  0.35532021  0.79001945    -0.15100
C1798       C  0.52864768  0.34381893  0.79615007    -0.30300
H1799       H  0.55849396  0.37750300  0.77584559     0.13900
H1800       H  0.52593943  0.32103669  0.80811193     0.14500
C1801       C  0.75322147  0.34147309  0.72952001    -0.15100
C1802       C  0.75260726  0.33821192  0.77078649    -0.30300
H1803       H  0.73205551  0.34164183  0.71285950     0.13900
H1804       H  0.77353525  0.33381186  0.78693068     0.14500
C1805       C  0.58778017  0.19887876  0.81493235    -0.15100
C1806       C  0.61708053  0.20632495  0.81180497    -0.30300
H1807       H  0.57109792  0.21643662  0.82034046     0.13900
H1808       H  0.63349642  0.18886027  0.80459068     0.14500
C1809       C  0.58145883  0.00030916  0.89242831    -0.15100
C1810       C  0.57217577  0.00175530  0.85308436    -0.30300
H1811       H  0.59323514  0.01912154  0.90648069     0.13900
H1812       H  0.56025041  0.98242691  0.84050800     0.14500
C1813       C  0.44554006  0.13259243  0.82870417    -0.15100
C1814       C  0.43677342  0.16125930  0.82229936    -0.30300
H1815       H  0.42965581  0.11641985  0.84159890     0.13900
H1816       H  0.45275770  0.17820491  0.81175280     0.14500
C1817       C  0.24102513  0.15978629  0.74379024    -0.15100
C1818       C  0.24102462  0.16833950  0.78351459    -0.30300
H1819       H  0.26062074  0.14901390  0.73024365     0.13900
H1820       H  0.22118915  0.17965354  0.79560456     0.14500
C1821       C  0.37228605  0.29307031  0.81019488    -0.15100
C1822       C  0.38720515  0.31119343  0.83589631    -0.30300
H1823       H  0.36942018  0.29963728  0.77850551     0.13900
H1824       H  0.38779187  0.30612247  0.86828466     0.14500
C1825       C  0.37211658  0.10403006  0.94264583    -0.15100
C1826       C  0.34696891  0.12058299  0.93710249    -0.30300
H1827       H  0.38518876  0.09880359  0.91548343     0.13900
H1828       H  0.33522988  0.12848372  0.96412771     0.14500
C1829       C  0.51179963  0.07406950  0.95173923    -0.15100
C1830       C  0.53190364  0.09386109  0.93542688    -0.30300
H1831       H  0.50914881  0.05151264  0.93913769     0.13900
H1832       H  0.53574817  0.11570406  0.94963130     0.14500
C1833       C  0.45334776  0.08765504  0.68457136    -0.15100
C1834       C  0.47464540  0.06768033  0.69645027    -0.30300
H1835       H  0.44757474  0.10696404  0.70349646     0.13900
H1836       H  0.47952625  0.04743726  0.67888761     0.14500
C1837       C  0.41271738  0.99950748  0.63895807    -0.15100
C1838       C  0.42429405  0.00325322  0.60083496    -0.30300
H1839       H  0.39677908  0.01572580  0.65132821     0.13900
H1840       H  0.43986891  0.98625534  0.58943069     0.14500
C1841       C  0.50926745  0.93868280  0.80485629    -0.15100
C1842       C  0.53340128  0.92110801  0.81335040    -0.30300
H1843       H  0.50138918  0.95544879  0.82656991     0.13900
H1844       H  0.54176316  0.90483134  0.79129403     0.14500
C1845       C  0.48495004  0.93456318  0.55031882    -0.15100
C1846       C  0.46180419  0.91670449  0.56182857    -0.30300
H1847       H  0.49211958  0.95334778  0.56930434     0.13900
H1848       H  0.45400892  0.89840803  0.54245593     0.14500
C1849       C  0.55311869  0.67015653  0.94123360    -0.15100
C1850       C  0.54600009  0.64131584  0.94976956    -0.30300
H1851       H  0.53553045  0.68702665  0.93719347     0.13900
H1852       H  0.56399489  0.62459994  0.95124447     0.14500
C1853       C  0.62326274  0.79723818  0.94548796    -0.15100
C1854       C  0.60785891  0.81465491  0.91933850    -0.30300
H1855       H  0.62642455  0.80452505  0.97679865     0.13900
H1856       H  0.60690423  0.80879557  0.88724087     0.14500
C1857       C  0.75837648  0.66338494  0.50895260    -0.15100
C1858       C  0.75091143  0.66368500  0.97518061    -0.30300
H1859       H  0.74075467  0.65099116  0.52488902     0.13900
H1860       H  0.77228351  0.66665979  0.95943069     0.14500
C1861       C  0.89094291  0.18837610  0.66886565    -0.15100
C1862       C  0.87847869  0.20777693  0.69533245    -0.30300
H1863       H  0.89061519  0.19332471  0.63643880     0.13900
H1864       H  0.87641262  0.20148064  0.72723695     0.14500
C1865       C  0.03005680  0.15105171  0.69448547    -0.15100
C1866       C  0.05652725  0.14141585  0.70924921    -0.30300
H1867       H  0.02864721  0.17137966  0.67594675     0.13900
H1868       H  0.05715821  0.12242487  0.73025771     0.14500
C1869       C  0.90293633  0.81001849  0.56366596    -0.15100
C1870       C  0.91084464  0.78377295  0.54665554    -0.30300
H1871       H  0.88429037  0.81036619  0.58529083     0.13900
H1872       H  0.93053527  0.78198247  0.52707707     0.14500
C1873       C  0.91094570  0.00241567  0.64068322    -0.15100
C1874       C  0.91969307  0.00297871  0.60082680    -0.30300
H1875       H  0.90072376  0.98229644  0.65377180     0.13900
H1876       H  0.93059369  0.02322954  0.58949799     0.14500
C1877       C  0.10879811  0.30838680  0.66640621    -0.15100
C1878       C  0.09621092  0.28128035  0.67326449    -0.30300
H1879       H  0.13157966  0.30979030  0.65416835     0.13900
H1880       H  0.07293651  0.27949780  0.68347253     0.14500
C1881       C  0.95877775  0.36622493  0.68762245    -0.15100
C1882       C  0.95050888  0.33696525  0.68647928    -0.30300
H1883       H  0.94167282  0.38358815  0.68326995     0.13900
H1884       H  0.96732497  0.31914270  0.68860663     0.14500
C1885       C  0.07843383  0.50112739  0.64732529    -0.15100
C1886       C  0.08821880  0.50217999  0.60802451    -0.30300
H1887       H  0.06437994  0.51943661  0.65849904     0.13900
H1888       H  0.10253332  0.48442952  0.59586203     0.14500
C1889       C  0.94337711  0.64104557  0.53324751    -0.15100
C1890       C  0.96982742  0.65130667  0.54707638    -0.30300
H1891       H  0.94219654  0.62039262  0.51560041     0.13900
H1892       H  0.97151574  0.67299821  0.56242983     0.14500
C1893       C  0.33770390  0.39795956  0.68325217    -0.15100
C1894       C  0.34914845  0.40688148  0.71993232    -0.30300
H1895       H  0.31804062  0.41084911  0.67363502     0.13900
H1896       H  0.33587488  0.42437398  0.73481479     0.14500
C1897       C  0.32674892  0.28591203  0.94918572    -0.15100
C1898       C  0.30573224  0.26436377  0.94233661    -0.30300
H1899       H  0.34359496  0.29125660  0.92617275     0.13900
H1900       H  0.28879920  0.25878673  0.96510556     0.14500
C1901       C  0.32105324  0.24837567  0.70680790    -0.15100
C1902       C  0.33898200  0.22403962  0.71387054    -0.30300
H1903       H  0.29945362  0.25071311  0.72214020     0.13900
H1904       H  0.35996337  0.22107637  0.69721505     0.14500
C1905       C  0.38180707  0.19536908  0.58042529    -0.15100
C1906       C  0.39513672  0.22267241  0.58211932    -0.30300
H1907       H  0.35806778  0.19309307  0.58827771     0.13900
H1908       H  0.41923820  0.22482219  0.57664522     0.14500
C1909       C  0.24486728  0.32518683  0.53040078    -0.15100
C1910       C  0.24731003  0.33801552  0.98595304    -0.30300
H1911       H  0.22712234  0.31002536  0.54071721     0.13900
H1912       H  0.26591999  0.34981965  0.97140648     0.14500
C1913       C  0.13292472  0.38753820  0.83443408    -0.15100
C1914       C  0.13859726  0.38511953  0.79397905    -0.30300
H1915       H  0.11477667  0.40233607  0.84429100     0.13900
H1916       H  0.15736204  0.37104486  0.78430686     0.14500
C1917       C  0.16852892  0.27515207  0.56212221    -0.15100
C1918       C  0.18581209  0.25104822  0.57180848    -0.30300
H1919       H  0.15149431  0.28351967  0.58311736     0.13900
H1920       H  0.20368294  0.24332778  0.55165010     0.14500
C1921       C  0.16402778  0.21568919  0.81462189    -0.15100
C1922       C  0.18257555  0.23954292  0.82104927    -0.30300
H1923       H  0.14760890  0.20890704  0.83743841     0.13900
H1924       H  0.19956764  0.24577713  0.79864379     0.14500
C1925       C  0.97218793  0.92102111  0.67476881    -0.15100
C1926       C  0.99784112  0.93596449  0.68345469    -0.30300
H1927       H  0.96191407  0.90600065  0.69710434     0.13900
H1928       H  0.00903606  0.95040502  0.66130916     0.14500
C1929       C  0.03044161  0.91893710  0.93248547    -0.15100
C1930       C  0.00765921  0.93793752  0.94291418    -0.30300
H1931       H  0.03436858  0.89838313  0.94991219     0.13900
H1932       H  0.00425504  0.95930885  0.92720153     0.14500
C1933       C  0.13523256  0.10686511  0.54945558    -0.15100
C1934       C  0.13059208  0.10506671  0.59027999    -0.30300
H1935       H  0.15378951  0.12067924  0.53836582     0.13900
H1936       H  0.11285694  0.09021971  0.60142842     0.14500
C1937       C  0.10931841  0.18892622  0.92108427    -0.15100
C1938       C  0.10025875  0.21563966  0.93584152    -0.30300
H1939       H  0.12816858  0.18789514  0.89994689     0.13900
H1940       H  0.08000119  0.21732725  0.95438089     0.14500
C1941       C  0.07794848  0.00424757  0.84780013    -0.15100
C1942       C  0.08519186  0.00468797  0.88795519    -0.30300
H1943       H  0.06643422  0.02365061  0.83466176     0.13900
H1944       H  0.09623653  0.98549466  0.90226007     0.14500
C1945       C  0.98645439  0.05746717  0.56304024    -0.15100
C1946       C  0.96124170  0.07439250  0.56675900    -0.30300
H1947       H  0.99604347  0.04661479  0.58981527     0.13900
H1948       H  0.95161284  0.08630977  0.54088842     0.14500
C1949       C  0.00789301  0.06617943  0.80711630    -0.15100
C1950       C  0.03185730  0.08438121  0.81431717    -0.30300
H1951       H  0.00152483  0.04876728  0.82891879     0.13900
H1952       H  0.03875273  0.10131152  0.79222354     0.14500
C1953       C  0.55996519  0.13958783  0.56154331    -0.15100
C1954       C  0.53391211  0.14940656  0.57742373    -0.30300
H1955       H  0.55982792  0.12133752  0.53937154     0.13900
H1956       H  0.53324803  0.16944720  0.59651637     0.14500
C1957       C  0.67994201  0.24202859  0.93550728    -0.15100
C1958       C  0.66282898  0.21722832  0.94340608    -0.30300
H1959       H  0.69685637  0.24947621  0.95725169     0.13900
H1960       H  0.64683202  0.20863529  0.92121746     0.14500
C1961       C  0.68788240  0.26291857  0.67757692    -0.15100
C1962       C  0.66874415  0.28531338  0.68817102    -0.30300
H1963       H  0.70850816  0.25858630  0.69446215     0.13900
H1964       H  0.64903384  0.29023053  0.66965057     0.14500
C1965       C  0.64040843  0.11753275  0.68593794    -0.15100
C1966       C  0.61252540  0.10560127  0.69069549    -0.30300
H1967       H  0.65324009  0.12201514  0.71344167     0.13900
H1968       H  0.59851346  0.10467559  0.66354494     0.14500
C1969       C  0.94020965  0.14330736  0.96306958    -0.15100
C1970       C  0.96759260  0.15437592  0.95403387    -0.30300
H1971       H  0.93821686  0.12102485  0.97691337     0.13900
H1972       H  0.97012889  0.17718766  0.94211677     0.11300
C1973       C  0.86314973  0.11317702  0.83704620    -0.15100
C1974       C  0.86030322  0.11789727  0.79636905    -0.30300
H1975       H  0.87686831  0.09427411  0.84725360     0.13900
H1976       H  0.84584282  0.13618169  0.78597626     0.14500
C1977       C  0.82367336  0.21973547  0.55815590    -0.15100
C1978       C  0.80861345  0.24581919  0.56509495    -0.30300
H1979       H  0.83822044  0.21022272  0.58154496     0.13900
H1980       H  0.79483068  0.25619236  0.54158302     0.14500
C1981       C  0.82671457  0.25718116  0.81060759    -0.15100
C1982       C  0.84639370  0.27963148  0.80152376    -0.30300
H1983       H  0.80517418  0.25524756  0.79503972     0.13900
H1984       H  0.86730812  0.28222831  0.81842860     0.14500
C1985       C  0.74690430  0.17536511  0.97856804    -0.15100
C1986       C  0.74445237  0.16254150  0.51697466    -0.30300
H1987       H  0.72902791  0.18953912  0.96631652     0.13900
H1988       H  0.76270552  0.14986060  0.53093585     0.14500
C1989       C  0.64193495  0.38426701  0.95373748    -0.15100
C1990       C  0.63831032  0.38831995  0.91316645    -0.30300
H1991       H  0.65670876  0.36629206  0.96429453     0.13900
H1992       H  0.62441628  0.40708953  0.90289456     0.14500
C1993       C  0.47267175  0.41667477  0.93167505    -0.15100
C1994       C  0.49622506  0.43558490  0.93736172    -0.30300
H1995       H  0.46601146  0.40048739  0.95497133     0.13900
H1996       H  0.50217044  0.45264323  0.91485438     0.14500
C1997       C  0.52341080  0.41864245  0.67835226    -0.15100
C1998       C  0.49613870  0.43163269  0.68369010    -0.30300
H1999       H  0.53335437  0.40457365  0.70199025     0.13900
H2000       H  0.48636378  0.44666089  0.66103115     0.14500
C2001       C  0.59521267  0.28228135  0.57393641    -0.15100
C2002       C  0.60367931  0.30950717  0.58748289    -0.30300
H2003       H  0.57477834  0.27957953  0.55606829     0.13900
H2004       H  0.62293223  0.31150476  0.60777613     0.14500
C2005       C  0.46127479  0.35595446  0.56305002    -0.15100
C2006       C  0.43442717  0.36981510  0.56016939    -0.30300
H2007       H  0.46273862  0.33316840  0.57534800     0.13900
H2008       H  0.43272887  0.39184101  0.54560673     0.14500
C2009       C  0.63610562  0.61872314  0.79247411    -0.15100
C2010       C  0.63208162  0.61670389  0.83341699    -0.30300
H2011       H  0.65317140  0.63412657  0.78083135     0.13900
H2012       H  0.61566339  0.60055874  0.84496215     0.14500
C2013       C  0.49147533  0.56363427  0.80526630    -0.15100
C2014       C  0.46827050  0.58227348  0.81419798    -0.30300
H2015       H  0.49829509  0.54580793  0.82617111     0.13900
H2016       H  0.46067655  0.59925851  0.79253844     0.14500
C2017       C  0.53384186  0.58215708  0.56238311    -0.15100
C2018       C  0.50935048  0.56512400  0.55366198    -0.30300
H2019       H  0.54165075  0.59955246  0.54144981     0.13900
H2020       H  0.50217078  0.54713953  0.57411784     0.14500
C2021       C  0.58803108  0.50186886  0.63907189    -0.15100
C2022       C  0.58139957  0.50149673  0.59859841    -0.30300
H2023       H  0.59541312  0.48134562  0.65431602     0.13900
H2024       H  0.57183103  0.52182478  0.58514669     0.14500
C2025       C  0.87325651  0.61568913  0.65904017    -0.15100
C2026       C  0.86932719  0.61801021  0.69983880    -0.30300
H2027       H  0.88887004  0.59873295  0.64766446     0.13900
H2028       H  0.85262903  0.63378236  0.71144191     0.14500
C2029       C  0.03971811  0.58056101  0.68136622    -0.15100
C2030       C  0.01586879  0.56217703  0.68896488    -0.30300
H2031       H  0.04690887  0.59725678  0.70357156     0.13900
H2032       H  0.00934954  0.54495586  0.66708359     0.14500
C2033       C  0.96541814  0.57200230  0.93146584    -0.15100
C2034       C  0.98949257  0.55457782  0.94099361    -0.30300
H2035       H  0.95668802  0.58848701  0.95299043     0.13900
H2036       H  0.99748223  0.53717841  0.92027171     0.14500
C2037       C  0.86427245  0.38579090  0.54400130    -0.15100
C2038       C  0.86863412  0.38923378  0.58445489    -0.30300
H2039       H  0.84693220  0.37013330  0.53393560     0.13900
H2040       H  0.88584876  0.40504654  0.59448639     0.14500
C2041       C  0.01054280  0.43618465  0.56158577    -0.15100
C2042       C  0.03640497  0.42095547  0.56896822    -0.30300
H2043       H  0.00024044  0.45050107  0.58455979     0.13900
H2044       H  0.04573117  0.40574925  0.54622715     0.14500
C2045       C  0.97257002  0.40394855  0.82585247    -0.15100
C2046       C  0.99508612  0.42352844  0.81649529    -0.30300
H2047       H  0.96995958  0.38278288  0.80943452     0.13900
H2048       H  0.99696996  0.44533052  0.83152960     0.14500
C2049       C  0.88343776  0.29441263  0.93966228    -0.15100
C2050       C  0.91269334  0.30216657  0.94186014    -0.30300
H2051       H  0.86630937  0.31186177  0.94309780     0.13900
H2052       H  0.93018679  0.28496458  0.94062682     0.14500
C2053       C  0.91660216  0.49887163  0.89313890    -0.15100
C2054       C  0.91290492  0.49769374  0.85189670    -0.30300
H2055       H  0.92417683  0.51996046  0.90655481     0.13900
H2056       H  0.90761776  0.47636678  0.83719881     0.14500
C2057       C  0.04281402  0.36953767  0.93306759    -0.15100
C2058       C  0.06103566  0.35602111  0.96013196    -0.30300
H2059       H  0.04975016  0.37147532  0.90139833     0.13900
H2060       H  0.05555787  0.35640694  0.99239228     0.14500
C2061       C  0.06648223  0.63171118  0.80299838    -0.15100
C2062       C  0.03864289  0.64188926  0.81085338    -0.30300
H2063       H  0.06970417  0.61088499  0.78597522     0.13900
H2064       H  0.03543250  0.66398637  0.82469189     0.14500
C2065       C  0.14839867  0.62849106  0.93966988    -0.15100
C2066       C  0.12884932  0.60517708  0.94374902    -0.30300
H2067       H  0.15426658  0.64045905  0.96745214     0.13900
H2068       H  0.12039985  0.59539415  0.91563724     0.14500
C2069       C  0.08140265  0.78227854  0.81697113    -0.15100
C2070       C  0.09100161  0.80861839  0.83249216    -0.30300
H2071       H  0.06080784  0.78065004  0.79922240     0.13900
H2072       H  0.11136961  0.80875529  0.85102965     0.14500
C2073       C  0.36250829  0.61463679  0.58222191    -0.15100
C2074       C  0.36056766  0.61891829  0.54145276    -0.30300
H2075       H  0.37676174  0.59651973  0.59362408     0.13900
H2076       H  0.34513869  0.63602474  0.53000446     0.14500
C2077       C  0.43713395  0.63864070  0.70513233    -0.15100
C2078       C  0.46399994  0.64722064  0.69039090    -0.30300
H2079       H  0.43560770  0.61952112  0.72590187     0.13900
H2080       H  0.46606685  0.66776106  0.67235940     0.14500
C2081       C  0.24965180  0.68397774  0.77587352    -0.15100
C2082       C  0.25269601  0.67202175  0.73796104    -0.30300
H2083       H  0.26780866  0.69785383  0.78785110     0.13900
H2084       H  0.23467531  0.65862688  0.72471591     0.14500
C2085       C  0.40604924  0.78535090  0.68241133    -0.15100
C2086       C  0.39553156  0.81216409  0.66952842    -0.30300
H2087       H  0.42695657  0.78367914  0.69948830     0.13900
H2088       H  0.37579132  0.81302475  0.64991918     0.14500
C2089       C  0.04521504  0.86859309  0.55018263    -0.15100
C2090       C  0.05183490  0.83918802  0.55535243    -0.30300
H2091       H  0.06280825  0.88541533  0.55487628     0.13900
H2092       H  0.03428054  0.82207386  0.55329238     0.14500
C2093       C  0.13190956  0.88485760  0.67232421    -0.15100
C2094       C  0.13732775  0.88215486  0.71272530    -0.30300
H2095       H  0.11474288  0.90087880  0.66265987     0.13900
H2096       H  0.15425096  0.86605542  0.72285475     0.14500
C2097       C  0.18465555  0.73670490  0.68440820    -0.15100
C2098       C  0.16931502  0.71037820  0.68913268    -0.30300
H2099       H  0.19490123  0.74710916  0.71100192     0.13900
H2100       H  0.15757038  0.70000247  0.66372983     0.14500
C2101       C  0.15085737  0.79129933  0.93960583    -0.15100
C2102       C  0.17204185  0.77404823  0.92157981    -0.30300
H2103       H  0.12808460  0.79248736  0.92743698     0.13900
H2104       H  0.19528681  0.77416521  0.93213759     0.14500
C2105       C  0.11905568  0.70808576  0.54671161    -0.15100
C2106       C  0.10772255  0.68738078  0.57231451    -0.30300
H2107       H  0.12109896  0.70298419  0.51445972     0.13900
H2108       H  0.10846193  0.69141873  0.60494481     0.14500
C2109       C  0.43910775  0.85679069  0.95235074    -0.15100
C2110       C  0.46667190  0.84575853  0.94468572    -0.30300
H2111       H  0.43713391  0.87917847  0.96583894     0.13900
H2112       H  0.46958700  0.82297036  0.93298750     0.14500
C2113       C  0.36233160  0.89119020  0.83504322    -0.15100
C2114       C  0.36197535  0.88543837  0.79442342    -0.30300
H2115       H  0.37626198  0.90965231  0.84602705     0.13900
H2116       H  0.34731818  0.86745092  0.78366853     0.14500
C2117       C  0.31695619  0.74381033  0.81747305    -0.15100
C2118       C  0.33124798  0.71701440  0.81315376    -0.30300
H2119       H  0.30718782  0.75498252  0.79106132     0.13900
H2120       H  0.34180765  0.70567060  0.83882884     0.14500
C2121       C  0.31776722  0.76481599  0.57483538    -0.15100
C2122       C  0.33678307  0.78705968  0.56263522    -0.30300
H2123       H  0.29544813  0.76241602  0.56158423     0.13900
H2124       H  0.35837473  0.79022506  0.57767471     0.14500
C2125       C  0.24750669  0.83747879  0.52633887    -0.15100
C2126       C  0.24412481  0.83255038  0.97883464    -0.30300
H2127       H  0.26935019  0.83559476  0.54109617     0.13900
H2128       H  0.22327981  0.82739248  0.96294193     0.14500
C2129       C  0.38717214  0.71260377  0.94966082    -0.15100
C2130       C  0.40273601  0.69616615  0.92226561    -0.30300
H2131       H  0.38382133  0.70382636  0.98027856     0.13900
H2132       H  0.40342425  0.70323200  0.89056443     0.14500
C2133       C  0.53657657  0.85282972  0.69105974    -0.15100
C2134       C  0.56421132  0.86383436  0.69907547    -0.30300
H2135       H  0.53408102  0.83049272  0.67770520     0.13900
H2136       H  0.56647621  0.88505091  0.71548508     0.14500
C2137       C  0.68984213  0.76384047  0.81362719    -0.15100
C2138       C  0.67355936  0.78957177  0.80854023    -0.30300
H2139       H  0.70053704  0.75352467  0.78726762     0.13900
H2140       H  0.66176952  0.80001122  0.83389120     0.14500
C2141       C  0.66390258  0.71169367  0.55913571    -0.15100
C2142       C  0.68246972  0.73413105  0.57161660    -0.30300
H2143       H  0.64247113  0.70783576  0.57442495     0.13900
H2144       H  0.70464327  0.73713475  0.55801742     0.14500
C2145       C  0.62829598  0.89965269  0.55899698    -0.15100
C2146       C  0.64948816  0.87808675  0.56373248    -0.30300
H2147       H  0.61807633  0.90837735  0.58671681     0.13900
H2148       H  0.65755490  0.86724090  0.53609324     0.14500
C2149       C  0.59475388  0.71591025  0.68236976    -0.15100
C2150       C  0.60408173  0.68939996  0.66718043    -0.30300
H2151       H  0.57441854  0.71746663  0.70077580     0.13900
H2152       H  0.62315033  0.68873332  0.64629691     0.14500
C2153       C  0.94028376  0.85617043  0.79080224    -0.15100
C2154       C  0.95667105  0.87092105  0.81862141    -0.30300
H2155       H  0.94709340  0.85595775  0.75898549     0.13900
H2156       H  0.94836941  0.87359290  0.84957848     0.14500
C2157       C  0.86609470  0.88241796  0.91436803    -0.15100
C2158       C  0.86288347  0.87922392  0.95543647    -0.30300
H2159       H  0.88113423  0.89994092  0.90306760     0.13900
H2160       H  0.84673065  0.86276854  0.96682043     0.14500
C2161       C  0.82182849  0.76027974  0.66550629    -0.15100
C2162       C  0.83892226  0.78327445  0.67935956    -0.30300
H2163       H  0.80313845  0.75161602  0.68354668     0.13900
H2164       H  0.85675843  0.79282864  0.66057037     0.14500
C2165       C  0.82297602  0.73314906  0.92451577    -0.15100
C2166       C  0.84322019  0.71329857  0.93972213    -0.30300
H2167       H  0.80024667  0.73469424  0.93678935     0.13900
H2168       H  0.86531709  0.71071602  0.92574493     0.14500
C2169       C  0.75142047  0.82493366  0.76757631    -0.15100
C2170       C  0.74977040  0.83131046  0.72716089    -0.30300
H2171       H  0.73166691  0.81553500  0.78255669     0.13900
H2172       H  0.76949969  0.83936374  0.71074528     0.14500
C2173       C  0.90826956  0.71267486  0.81071069    -0.15100
C2174       C  0.89943393  0.68587954  0.82601168    -0.30300
H2175       H  0.92842026  0.71451228  0.79200028     0.13900
H2176       H  0.88053756  0.68500372  0.84714743     0.14500
loop_ 
_geom_bond_atom_site_label_1 
_geom_bond_atom_site_label_2 
_geom_bond_distance 
_geom_bond_site_symmetry_2 
_ccdc_geom_bond_type 
Fe1          O17   2.031       .  S
Fe1           O7   2.085       .  S
Fe1          O14   2.121       .  S
Fe1           O6   2.008       .  S
Fe1          O12   1.921       .  S
Fe2           O5   2.065       .  S
Fe2           O9   2.124       .  S
Fe2          O13   2.048       .  S
Fe2          O18   2.080       .  S
Fe2          O12   1.966       .  S
Fe3          O21   2.140       .  S
Fe3           O8   2.048       .  S
Fe3          O15   2.064       .  S
Fe3           O4   2.097       .  S
Fe3          O12   1.934       .  S
O4           C11   1.276       .  A
O5           C19   1.279       .  A
O6           C11   1.264       .  A
O7           C10   1.275       .  A
O8           C20   1.261       .  A
O9           C22   1.267       .  A
C10          O15   1.273       .  A
C10        C1081   1.481       .  S
C11        C1074   1.463       .  S
O13          C16   1.270       .  A
O14          C16   1.283       .  A
C16        C1085   1.475       .  S
O17          C22   1.256       .  A
O18          C20   1.269       .  A
C19          O21   1.290       .  A
C19        C1069   1.493       .  S
C20        C1065   1.463       .  S
C22        C1077   1.485       .  S
Fe23         O39   2.048       .  S
Fe23         O29   2.082       .  S
Fe23         O36   2.088       .  S
Fe23         O28   2.002       .  S
Fe23         O34   1.939       .  S
Fe24         O27   2.053       .  S
Fe24         O31   2.073       .  S
Fe24         O35   2.058       .  S
Fe24         O40   2.065       .  S
Fe24         O34   1.938       .  S
Fe25         O43   2.147       .  S
Fe25         O30   2.044       .  S
Fe25         O37   2.064       .  S
Fe25         O26   2.124       .  S
Fe25         O34   1.949       .  S
O26          C33   1.284       .  A
O27          C41   1.273       .  A
O28          C33   1.266       .  A
O29          C32   1.270       .  A
O30          C42   1.261       .  A
O31          C44   1.271       .  A
C32          O37   1.269       .  A
C32        C1082   1.483       .  S
C33        C1050   1.472       .  S
O35          C38   1.267       .  A
O36          C38   1.272       .  A
C38        C1061   1.468       .  S
O39          C44   1.269       .  A
O40          C42   1.266       .  A
C41          O43   1.291       .  A
C41        C1058   1.493       .  S
C42        C1046   1.463       .  S
C44        C1054   1.461       .  S
Fe45         O61   2.063       .  S
Fe45         O51   2.036       .  S
Fe45         O58   2.068       .  S
Fe45         O50   2.070       .  S
Fe45         O56   1.967       .  S
Fe46         O49   2.074       .  S
Fe46         O53   2.073       .  S
Fe46         O57   2.045       .  S
Fe46         O62   2.087       .  S
Fe46         O56   1.949       .  S
Fe47         O65   2.031       .  S
Fe47         O52   2.122       .  S
Fe47         O48   2.080       .  S
Fe47       O1147   2.100       .  S
Fe47         O56   1.952       .  S
O48          C55   1.269       .  A
O49          C63   1.265       .  A
O50          C55   1.276       .  A
O51        C1142   1.258       .  A
O52          C64   1.292       .  A
O53          C66   1.274       .  A
C54          O59   1.276       .  A
C54        O1139   1.258       .  A
C54        C1034   1.468       .  S
C55        C1038   1.483       .  S
O57          C60   1.266       .  A
O58          C60   1.266       .  A
O59       Fe1135   2.100   1_554  S
C60        C1029   1.457       .  S
O61          C66   1.271       .  A
O62          C64   1.279       .  A
C63          O65   1.257       .  A
C63        C1021   1.464       .  S
C64        C1025   1.499       .  S
C66        C1041   1.469       .  S
Fe67         O83   2.058       .  S
Fe67         O73   2.040   1_554  S
Fe67         O80   2.072       .  S
Fe67         O72   2.065       .  S
Fe67         O78   1.954       .  S
Fe68         O71   2.058       .  S
Fe68         O75   2.073       .  S
Fe68         O79   2.040       .  S
Fe68         O84   2.097       .  S
Fe68         O78   1.946       .  S
Fe69         O87   2.070       .  S
Fe69         O74   2.109       .  S
Fe69         O70   2.121       .  S
Fe69       O1169   2.076   1_554  S
Fe69         O78   1.950       .  S
O70          C77   1.278       .  A
O71          C85   1.261       .  A
O72          C77   1.275       .  A
O73        C1164   1.262       .  A
O74          C86   1.287       .  A
O75          C88   1.273       .  A
C76          O81   1.272       .  A
C76        O1161   1.256       .  A
C76        C1013   1.461       .  S
C77        C1037   1.495       .  S
O79          C82   1.267       .  A
O80          C82   1.267       .  A
O81       Fe1157   2.092       .  S
C82        C1009   1.456       .  S
O83          C88   1.268       .  A
O84          C86   1.280       .  A
C85          O87   1.270       .  A
C85        C1002   1.479       .  S
C86        C1005   1.498       .  S
C88        C1017   1.469       .  S
Fe89        O105   2.042       .  S
Fe89         O95   2.085       .  S
Fe89        O102   2.078       .  S
Fe89         O94   2.000       .  S
Fe89        O100   1.932       .  S
Fe90         O93   2.058       .  S
Fe90         O97   2.081       .  S
Fe90        O101   2.056       .  S
Fe90        O106   2.068       .  S
Fe90        O100   1.930       .  S
Fe91        O109   2.144       .  S
Fe91         O96   2.053       .  S
Fe91        O103   2.067       .  S
Fe91         O92   2.137       .  S
Fe91        O100   1.939       .  S
O92          C99   1.285       .  A
O93         C107   1.273       .  A
O94          C99   1.262       .  A
O95          C98   1.272       .  A
O96         C108   1.265       .  A
O97         C110   1.273       .  A
C98         O103   1.270       .  A
C98         C994   1.484       .  S
C99        C1030   1.471       .  S
O101        C104   1.266       .  A
O102        C104   1.271       .  A
C104        C997   1.463       .  S
O105        C110   1.269       .  A
O106        C108   1.269       .  A
C107        O109   1.289       .  A
C107        C985   1.494       .  S
C108        C989   1.467       .  S
C110       C1033   1.458       .  S
Fe111       O127   2.034       .  S
Fe111       O117   2.050       .  S
Fe111       O124   2.073       .  S
Fe111       O116   2.036       .  S
Fe111       O122   1.950       .  S
Fe112       O115   2.080       .  S
Fe112       O119   2.045       .  S
Fe112       O123   2.050       .  S
Fe112       O128   2.050       .  S
Fe112       O122   1.954       .  S
Fe113       O131   2.134       .  S
Fe113       O118   2.058       .  S
Fe113       O125   2.080       .  S
Fe113       O114   2.103       .  S
Fe113       O122   1.966       .  S
O114        C121   1.287       .  A
O115        C129   1.281       .  A
O116        C121   1.271       .  A
O117        C120   1.260       .  A
O118        C130   1.259       .  A
O119        C132   1.262       .  A
C120        O125   1.261       .  A
C120        C993   1.482       .  S
C121       C1010   1.474       .  S
O123        C126   1.271       .  A
O124        C126   1.272       .  A
C126        C981   1.466       .  S
O127        C132   1.260       .  A
O128        C130   1.258       .  A
C129        O131   1.296       .  A
C129        C977   1.496       .  S
C130        C973   1.473       .  S
C132       C1014   1.447       .  S
Fe133       O149   2.065   1_655  S
Fe133       O139   2.025       .  S
Fe133       O146   2.062       .  S
Fe133       O138   2.059       .  S
Fe133       O144   1.944       .  S
Fe134       O137   2.053       .  S
Fe134       O141   2.084   1_655  S
Fe134      O1233   2.040       .  S
Fe134      O1238   2.084       .  S
Fe134       O144   1.929       .  S
Fe135       O153   2.083       .  S
Fe135       O140   2.103       .  S
Fe135       O147   2.094       .  S
Fe135       O136   2.135       .  S
Fe135       O144   1.950       .  S
O136        C143   1.283       .  A
O137        C151   1.261       .  A
O138        C143   1.275       .  A
O139        C142   1.253       .  A
O140       C1240   1.286       .  A
O141        C154   1.275       .  A
C142        O147   1.271       .  A
C142        C957   1.460       .  S
C143        C965   1.494       .  S
O145      Fe1222   2.041   1_554  S
O145        C148   1.264       .  A
O146       C1236   1.263       .  A
C148       O1234   1.265   1_554  A
C148        C953   1.454   1_655  S
O149        C154   1.272       .  A
O150      Fe1222   2.088   1_554  S
O150        C152   1.280       .  A
C151        O153   1.271       .  A
C151        C962   1.475       .  S
C152       O1228   1.289   1_554  A
C152        C949   1.492       .  S
C154        C969   1.475       .  S
Fe155       O171   2.088   1_655  S
Fe155       O161   1.992       .  S
Fe155       O168   2.040       .  S
Fe155       O160   2.096       .  S
Fe155       O166   1.940       .  S
Fe156       O159   2.093       .  S
Fe156       O163   2.062       .  S
Fe156       O167   2.094       .  S
Fe156       O172   2.062       .  S
Fe156       O166   1.934       .  S
Fe157       O175   2.047       .  S
Fe157       O162   2.148       .  S
Fe157       O169   2.136       .  S
Fe157       O158   2.073       .  S
Fe157       O166   1.943       .  S
O158        C165   1.270       .  A
O159        C173   1.273       .  A
O160        C165   1.272       .  A
O161        C164   1.262       .  A
O162        C174   1.291       .  A
O163        C176   1.267   1_655  A
C164        O169   1.286       .  A
C164        C945   1.462       .  S
C165        C966   1.494       .  S
O167        C170   1.277       .  A
O168        C170   1.269       .  A
C170        C942   1.458   1_655  S
O171        C176   1.272       .  A
O172        C174   1.272       .  A
C173        O175   1.264       .  A
C173       C1086   1.475       .  S
C174        C938   1.499       .  S
C176        C974   1.475       .  S
Fe177       O193   2.095       .  S
Fe177       O183   1.998       .  S
Fe177       O190   2.043       .  S
Fe177       O182   2.074       .  S
Fe177       O188   1.945       .  S
Fe178       O181   2.060       .  S
Fe178       O185   2.051       .  S
Fe178       O189   2.068       .  S
Fe178       O194   2.056       .  S
Fe178       O188   1.942       .  S
Fe179       O197   2.057       .  S
Fe179       O184   2.158       .  S
Fe179       O191   2.115       .  S
Fe179       O180   2.073       .  S
Fe179       O188   1.950       .  S
O180        C187   1.273       .  A
O181        C195   1.264       .  A
O182        C187   1.270       .  A
O183        C186   1.264       .  A
O184        C196   1.294       .  A
O185        C198   1.266       .  A
C186        O191   1.282       .  A
C186        C929   1.460       .  S
C187        C933   1.485       .  S
O189        C192   1.269       .  A
O190        C192   1.264       .  A
C192        C925   1.455       .  S
O193        C198   1.274       .  A
O194        C196   1.273       .  A
C195        O197   1.263       .  A
C195       C1062   1.469       .  S
C196        C921   1.500       .  S
C198        C990   1.466       .  S
Fe199       O215   2.082       .  S
Fe199       O205   1.991       .  S
Fe199       O212   2.045   1_554  S
Fe199       O204   2.097       .  S
Fe199       O210   1.927       .  S
Fe200       O203   2.063       .  S
Fe200       O207   2.059       .  S
Fe200      O1299   2.066   1_554  S
Fe200      O1304   2.044   1_554  S
Fe200       O210   1.922       .  S
Fe201       O219   2.048       .  S
Fe201       O206   2.152       .  S
Fe201       O213   2.129       .  S
Fe201       O202   2.073       .  S
Fe201       O210   1.947       .  S
O202        C209   1.274       .  A
O203        C217   1.268       .  A
O204        C209   1.274       .  A
O205        C208   1.259       .  A
O206       C1306   1.291   1_554  A
O207        C220   1.265       .  A
C208        O213   1.282       .  A
C208        C909   1.463       .  S
C209        C934   1.492       .  S
O211      Fe1288   2.065       .  S
O211        C214   1.265       .  A
O212       C1302   1.271       .  A
C214       O1300   1.262       .  A
C214        C906   1.452       .  S
O215        C220   1.269       .  A
O216      Fe1288   2.047       .  S
O216        C218   1.276       .  A
C217        O219   1.264       .  A
C217        C914   1.462       .  S
C218       O1294   1.298       .  A
C218        C901   1.493       .  S
C220        C917   1.468       .  S
Fe221       O237   2.042       .  S
Fe221       O227   2.052       .  S
Fe221       O234   2.078       .  S
Fe221       O226   2.032       .  S
Fe221       O232   1.949       .  S
Fe222       O225   2.070       .  S
Fe222       O229   2.041       .  S
Fe222       O233   2.071       .  S
Fe222       O238   2.052       .  S
Fe222       O232   1.965       .  S
Fe223       O241   2.162       .  S
Fe223       O228   2.050       .  S
Fe223       O235   2.089       .  S
Fe223      O1312   2.098       .  S
Fe223       O232   1.960       .  S
O224      Fe1311   2.099   1_554  S
O224        C231   1.286       .  A
O225        C239   1.280       .  A
O226       C1319   1.269       .  A
O227        C230   1.263       .  A
O228        C240   1.256       .  A
O229        C242   1.258       .  A
C230        O235   1.268       .  A
C230        C897   1.492       .  S
C231       O1314   1.271   1_554  A
C231        C889   1.473       .  S
O233        C236   1.278       .  A
O234        C236   1.274       .  A
C236        C961   1.472       .  S
O237        C242   1.260       .  A
O238        C240   1.259       .  A
C239        O241   1.302       .  A
C239        C885   1.504       .  S
C240        C881   1.466       .  S
C242        C893   1.451       .  S
Fe243       O259   2.038       .  S
Fe243       O249   2.086       .  S
Fe243       O256   2.082       .  S
Fe243       O248   1.987       .  S
Fe243       O254   1.939       .  S
Fe244       O247   2.044       .  S
Fe244       O251   2.067       .  S
Fe244       O255   2.053       .  S
Fe244       O260   2.053       .  S
Fe244       O254   1.929       .  S
Fe245       O263   2.164       .  S
Fe245       O250   2.047       .  S
Fe245       O257   2.072       .  S
Fe245      O1334   2.149   1_554  S
Fe245       O254   1.940       .  S
O246      Fe1333   2.152       .  S
O246        C253   1.288       .  A
O247        C261   1.270       .  A
O248       C1341   1.261   1_554  A
O249        C252   1.270       .  A
O250        C262   1.263       .  A
O251        C264   1.274       .  A
C252        O257   1.269       .  A
C252        C898   1.488       .  S
C253       O1336   1.257       .  A
C253        C870   1.468       .  S
O255        C258   1.263       .  A
O256        C258   1.269       .  A
C258        C913   1.462       .  S
O259        C264   1.269       .  A
O260        C262   1.264       .  A
C261        O263   1.294       .  A
C261        C877   1.497       .  S
C262        C865   1.459       .  S
C264        C873   1.451       .  S
Fe265       O281   2.057   1_455  S
Fe265       O271   2.034       .  S
Fe265       O278   2.066       .  S
Fe265       O270   2.064       .  S
Fe265       O276   1.955       .  S
Fe266       O269   2.066       .  S
Fe266       O273   2.086   1_455  S
Fe266      O1365   2.040       .  S
Fe266      O1370   2.079       .  S
Fe266       O276   1.935       .  S
Fe267       O285   2.066       .  S
Fe267       O272   2.118       .  S
Fe267       O279   2.101       .  S
Fe267       O268   2.111       .  S
Fe267       O276   1.941       .  S
O268        C275   1.280       .  A
O269        C283   1.265       .  A
O270        C275   1.277       .  A
O271        C274   1.254       .  A
O272       C1372   1.287       .  A
O273        C286   1.276       .  A
C274        O279   1.273       .  A
C274        C862   1.470       .  S
C275        C854   1.484   1_545  S
O277      Fe1354   2.077   1_554  S
O277        C280   1.273       .  A
O278       C1368   1.263       .  A
C280       O1366   1.268   1_554  A
C280        C857   1.457   1_455  S
O281        C286   1.271       .  A
O282      Fe1354   2.060   1_554  S
O282        C284   1.271       .  A
C283        O285   1.270       .  A
C283        C849   1.482       .  S
C284       O1360   1.287   1_554  A
C284        C845   1.494       .  S
C286        C882   1.469       .  S
Fe287       O303   2.040   1_455  S
Fe287       O293   2.048       .  S
Fe287       O300   2.085   1_455  S
Fe287       O292   2.069       .  S
Fe287       O298   1.959       .  S
Fe288       O291   2.048       .  S
Fe288       O295   2.075   1_455  S
Fe288       O299   2.034       .  S
Fe288       O304   2.083       .  S
Fe288       O298   1.950       .  S
Fe289       O307   2.072       .  S
Fe289       O294   2.113       .  S
Fe289       O301   2.088       .  S
Fe289       O290   2.090       .  S
Fe289       O298   1.957       .  S
O290        C297   1.272       .  A
O291        C305   1.262       .  A
O292        C297   1.274       .  A
O293        C296   1.266       .  A
O294        C306   1.284       .  A
O295        C308   1.271       .  A
C296        O301   1.278       .  A
C296        C841   1.471       .  S
C297        C853   1.483       .  S
O299        C302   1.264       .  A
O300        C302   1.270   1_655  A
C302        C838   1.456   1_455  S
O303        C308   1.263       .  A
O304        C306   1.274       .  A
C305        O307   1.269       .  A
C305        C982   1.464       .  S
C306       C1006   1.497       .  S
C308       C1066   1.463       .  S
Fe309       O325   2.059       .  S
Fe309       O315   2.092       .  S
Fe309       O322   2.077       .  S
Fe309       O314   1.999       .  S
Fe309       O320   1.948       .  S
Fe310       O313   2.065       .  S
Fe310       O317   2.053       .  S
Fe310       O321   2.082       .  S
Fe310       O326   2.079       .  S
Fe310       O320   1.944       .  S
Fe311       O329   2.160       .  S
Fe311       O316   2.055       .  S
Fe311       O323   2.076       .  S
Fe311      O1400   2.114       .  S
Fe311       O320   1.939       .  S
O312      Fe1399   2.124   1_554  S
O312        C319   1.282       .  A
O313        C327   1.273       .  A
O314       C1407   1.264       .  A
O315        C318   1.273       .  A
O316        C328   1.261       .  A
O317        C330   1.268       .  A
C318        O323   1.273       .  A
C318        C822   1.497       .  S
C319       O1402   1.261   1_554  A
C319        C829   1.463       .  S
O321        C324   1.275       .  A
O322        C324   1.271       .  A
C324        C850   1.470       .  S
O325        C330   1.272       .  A
O326        C328   1.267       .  A
C327        O329   1.294       .  A
C327        C825   1.504       .  S
C328        C970   1.469       .  S
C330        C834   1.458       .  S
Fe331       O347   2.033       .  S
Fe331       O337   2.064       .  S
Fe331       O344   2.091       .  S
Fe331       O336   2.031       .  S
Fe331       O342   1.955       .  S
Fe332       O335   2.114       .  S
Fe332       O339   2.060       .  S
Fe332       O343   2.065       .  S
Fe332       O348   2.042       .  S
Fe332       O342   1.977       .  S
Fe333       O351   2.117       .  S
Fe333       O338   2.049       .  S
Fe333       O345   2.081       .  S
Fe333      O1422   2.091   1_554  S
Fe333       O342   1.956       .  S
O334      Fe1421   2.086       .  S
O334        C341   1.281       .  A
O335        C349   1.285       .  A
O336       C1429   1.269   1_554  A
O337        C340   1.266       .  A
O338        C350   1.257       .  A
O339        C352   1.262       .  A
C340        O345   1.265       .  A
C340        C821   1.493       .  S
C341       O1424   1.269       .  A
C341        C809   1.464       .  S
O343        C346   1.273       .  A
O344        C346   1.277       .  A
C346        C818   1.476       .  S
O347        C352   1.258       .  A
O348        C350   1.257       .  A
C349        O351   1.296       .  A
C349        C805   1.498       .  S
C350        C918   1.467       .  S
C352        C813   1.450       .  S
Fe353       O369   2.049   1_554  S
Fe353       O359   2.079       .  S
Fe353       O366   2.072   1_455  S
Fe353       O358   1.995       .  S
Fe353       O364   1.947       .  S
Fe354       O365   2.073       .  S
Fe354       O370   2.073       .  S
Fe354      O1445   2.051   1_554  S
Fe354      O1449   2.068   1_554  S
Fe354       O364   1.942       .  S
Fe355       O373   2.167       .  S
Fe355       O360   2.045       .  S
Fe355       O367   2.072       .  S
Fe355       O356   2.129       .  S
Fe355       O364   1.945       .  S
O356        C363   1.286       .  A
O357      Fe1442   2.033       .  S
O357        C371   1.267       .  A
O358        C363   1.264       .  A
O359        C362   1.269       .  A
O360        C372   1.259       .  A
O361      Fe1442   2.090       .  S
O361        C374   1.276       .  A
C362        O367   1.269       .  A
C362        C798   1.488       .  S
C363        C941   1.465       .  S
O365        C368   1.271   1_455  A
O366        C368   1.268       .  A
C368        C802   1.467       .  S
O369       C1462   1.271       .  A
O370        C372   1.266       .  A
C371       O1461   1.294       .  A
C371        C978   1.494       .  S
C372       C1018   1.463       .  S
O373       C1459   1.294   1_554  A
C374       O1457   1.270       .  A
C374        C946   1.462   1_455  S
Fe375       O391   2.033       .  S
Fe375       O381   2.055       .  S
Fe375       O388   2.082   1_455  S
Fe375       O380   2.027       .  S
Fe375       O386   1.952       .  S
Fe376       O379   2.081       .  S
Fe376       O383   2.040       .  S
Fe376       O387   2.062       .  S
Fe376       O392   2.046       .  S
Fe376       O386   1.962       .  S
Fe377       O395   2.148       .  S
Fe377       O382   2.034       .  S
Fe377       O389   2.075       .  S
Fe377       O378   2.108       .  S
Fe377       O386   1.964       .  S
O378        C385   1.286       .  A
O379        C393   1.282       .  A
O380        C385   1.269       .  A
O381        C384   1.262       .  A
O382        C394   1.254       .  A
O383        C396   1.260       .  A
C384        O389   1.262       .  A
C384        C797   1.488       .  S
C385        C954   1.475       .  S
O387        C390   1.273   1_455  A
O388        C390   1.274       .  A
C390        C793   1.474       .  S
O391        C396   1.260       .  A
O392        C394   1.258       .  A
C393        O395   1.300       .  A
C393        C826   1.502       .  S
C394        C789   1.463       .  S
C396        C958   1.445   1_455  S
Fe397       O413   2.059   1_554  S
Fe397       O403   2.077       .  S
Fe397       O410   2.065   1_655  S
Fe397       O402   2.014       .  S
Fe397       O408   1.944       .  S
Fe398       O409   2.080       .  S
Fe398       O414   2.082       .  S
Fe398      O1489   2.063   1_554  S
Fe398      O1493   2.065   1_554  S
Fe398       O408   1.951       .  S
Fe399       O417   2.165       .  S
Fe399       O404   2.059       .  S
Fe399       O411   2.087       .  S
Fe399       O400   2.119       .  S
Fe399       O408   1.946       .  S
O400        C407   1.282       .  A
O401      Fe1486   2.083       .  S
O401        C415   1.286       .  A
O402        C407   1.266       .  A
O403        C406   1.270       .  A
O404        C416   1.263       .  A
O405      Fe1486   2.119       .  S
O405        C418   1.264       .  A
C406        O411   1.276       .  A
C406        C786   1.496       .  S
C407        C837   1.472       .  S
O409        C412   1.274   1_655  A
O410        C412   1.268       .  A
C412       C1001   1.467       .  S
O413       C1506   1.272       .  A
O414        C416   1.268       .  A
C415       O1505   1.293       .  A
C415       C1070   1.493       .  S
C416        C781   1.473       .  S
O417       C1503   1.295   1_554  A
C418       O1501   1.256       .  A
C418        C842   1.493   1_655  S
Fe419       O435   2.049       .  S
Fe419       O425   2.078       .  S
Fe419       O432   2.093   1_655  S
Fe419       O424   2.004       .  S
Fe419       O430   1.938       .  S
Fe420       O423   2.058       .  S
Fe420       O427   2.067       .  S
Fe420       O431   2.067       .  S
Fe420       O436   2.072       .  S
Fe420       O430   1.951       .  S
Fe421       O439   2.174       .  S
Fe421       O426   2.058       .  S
Fe421       O433   2.081       .  S
Fe421       O422   2.113       .  S
Fe421       O430   1.943       .  S
O422        C429   1.281       .  A
O423        C437   1.275       .  A
O424        C429   1.263       .  A
O425        C428   1.273       .  A
O426        C438   1.259       .  A
O427        C440   1.265       .  A
C428        O433   1.275       .  A
C428        C785   1.492   1_545  S
C429        C858   1.465       .  S
O431        C434   1.273   1_655  A
O432        C434   1.277       .  A
C434        C777   1.474       .  S
O435        C440   1.265       .  A
O436        C438   1.263       .  A
C437        O439   1.300       .  A
C437        C886   1.504       .  S
C438        C773   1.469       .  S
C440        C861   1.461   1_655  S
Fe441       O457   2.065       .  S
Fe441       O447   2.040   1_554  S
Fe441       O454   2.066       .  S
Fe441       O446   2.066       .  S
Fe441       O452   1.952       .  S
Fe442       O445   2.062       .  S
Fe442       O449   2.083       .  S
Fe442       O453   2.033       .  S
Fe442       O458   2.085       .  S
Fe442       O452   1.942       .  S
Fe443       O461   2.066       .  S
Fe443       O448   2.114       .  S
Fe443       O444   2.111       .  S
Fe443      O1543   2.083   1_554  S
Fe443       O452   1.946       .  S
O444        C451   1.275       .  A
O445        C459   1.263       .  A
O446        C451   1.273       .  A
O447       C1538   1.262       .  A
O448        C460   1.288       .  A
O449        C462   1.273       .  A
C450        O455   1.280       .  A
C450       O1535   1.267       .  A
C450       C1078   1.472       .  S
C451        C769   1.491       .  S
O453        C456   1.263       .  A
O454        C456   1.266       .  A
O455      Fe1531   2.101       .  S
C456       C1073   1.446       .  S
O457        C462   1.270       .  A
O458        C460   1.277       .  A
C459        O461   1.269       .  A
C459        C801   1.478       .  S
C460        C937   1.495       .  S
C462        C782   1.476       .  S
Fe463       O479   2.056       .  S
Fe463       O469   2.049       .  S
Fe463       O476   2.065       .  S
Fe463       O468   2.053       .  S
Fe463       O474   1.953       .  S
Fe464       O467   2.073       .  S
Fe464       O471   2.086       .  S
Fe464       O475   2.044       .  S
Fe464       O480   2.092       .  S
Fe464       O474   1.937       .  S
Fe465       O483   2.048       .  S
Fe465       O470   2.116       .  S
Fe465       O466   2.094       .  S
Fe465      O1565   2.097       .  S
Fe465       O474   1.953       .  S
O466        C473   1.271       .  A
O467        C481   1.267       .  A
O468        C473   1.269       .  A
O469       C1560   1.261       .  A
O470        C482   1.290       .  A
O471        C484   1.276       .  A
C472        O477   1.273       .  A
C472       O1557   1.256   1_554  A
C472       C1053   1.468       .  S
C473        C770   1.477       .  S
O475        C478   1.266       .  A
O476        C478   1.265       .  A
O477      Fe1553   2.096   1_554  S
C478       C1049   1.451       .  S
O479        C484   1.269       .  A
O480        C482   1.280       .  A
C481        O483   1.261       .  A
C481        C761   1.467       .  S
C482        C922   1.496       .  S
C484        C765   1.467       .  S
Fe485       O501   2.086       .  S
Fe485       O491   2.007       .  S
Fe485       O498   2.044       .  S
Fe485       O490   2.073       .  S
Fe485       O496   1.948       .  S
Fe486       O489   2.066       .  S
Fe486       O493   2.054       .  S
Fe486       O497   2.073       .  S
Fe486       O502   2.068       .  S
Fe486       O496   1.946       .  S
Fe487       O505   2.039       .  S
Fe487       O492   2.152       .  S
Fe487       O499   2.109       .  S
Fe487       O488   2.071       .  S
Fe487       O496   1.950       .  S
O488        C495   1.273       .  A
O489        C503   1.266       .  A
O490        C495   1.271       .  A
O491        C494   1.264       .  A
O492        C504   1.292       .  A
O493        C506   1.267       .  A
C494        O499   1.279       .  A
C494        C758   1.462       .  S
C495        C749   1.480   1_565  S
O497        C500   1.270       .  A
O498        C500   1.265       .  A
C500        C753   1.460       .  S
O501        C506   1.273       .  A
O502        C504   1.275       .  A
C503        O505   1.259       .  A
C503        C998   1.460       .  S
C504       C1026   1.502       .  S
C506       C1045   1.465       .  S
Fe507       O523   2.063       .  S
Fe507       O513   2.005       .  S
Fe507       O520   2.055       .  S
Fe507       O512   2.073       .  S
Fe507       O518   1.941       .  S
Fe508       O511   2.064       .  S
Fe508       O515   2.059       .  S
Fe508      O1607   2.088   1_554  S
Fe508      O1612   2.051   1_554  S
Fe508       O518   1.941       .  S
Fe509       O527   2.068       .  S
Fe509       O514   2.133       .  S
Fe509       O521   2.121       .  S
Fe509       O510   2.076       .  S
Fe509       O518   1.959       .  S
O510        C517   1.269       .  A
O511        C525   1.266       .  A
O512        C517   1.266       .  A
O513        C516   1.267       .  A
O514       C1614   1.287   1_554  A
O515        C528   1.263       .  A
C516        O521   1.284       .  A
C516        C745   1.459       .  S
C517        C750   1.487       .  S
O519      Fe1596   2.078       .  S
O519        C522   1.267       .  A
O520       C1610   1.274   1_554  A
C522       O1608   1.261       .  A
C522        C741   1.457       .  S
O523        C528   1.265       .  A
O524      Fe1596   2.076       .  S
O524        C526   1.283       .  A
C525        O527   1.266       .  A
C525        C817   1.477       .  S
C526       O1602   1.295       .  A
C526        C737   1.484       .  S
C528        C866   1.462       .  S
Fe529       O545   2.073       .  S
Fe529       O535   2.044       .  S
Fe529       O542   2.063       .  S
Fe529       O534   2.063       .  S
Fe529       O540   1.945       .  S
Fe530       O533   2.048       .  S
Fe530       O537   2.059       .  S
Fe530       O541   2.037       .  S
Fe530       O546   2.103       .  S
Fe530       O540   1.929       .  S
Fe531       O549   2.067       .  S
Fe531       O536   2.100       .  S
Fe531       O543   2.097       .  S
Fe531       O532   2.098       .  S
Fe531       O540   1.956       .  S
O532        C539   1.267       .  A
O533        C547   1.252       .  A
O534        C539   1.269       .  A
O535        C538   1.267       .  A
O536        C548   1.292       .  A
O537        C550   1.271       .  A
C538        O543   1.283       .  A
C538        C814   1.469       .  S
C539        C730   1.491       .  S
O541        C544   1.265       .  A
O542        C544   1.268       .  A
C544        C810   1.456       .  S
O545        C550   1.272       .  A
O546        C548   1.288       .  A
C547        O549   1.259       .  A
C547        C726   1.464       .  S
C548        C738   1.486       .  S
C550        C733   1.470       .  S
Fe551       O567   2.086       .  S
Fe551       O557   2.007       .  S
Fe551       O564   2.045       .  S
Fe551       O556   2.089       .  S
Fe551       O562   1.938       .  S
Fe552       O555   2.078       .  S
Fe552       O559   2.046       .  S
Fe552       O563   2.084       .  S
Fe552       O568   2.056       .  S
Fe552       O562   1.937       .  S
Fe553       O571   2.058       .  S
Fe553       O558   2.141       .  S
Fe553       O565   2.117       .  S
Fe553       O554   2.081       .  S
Fe553       O562   1.946       .  S
O554        C561   1.276       .  A
O555        C569   1.271       .  A
O556        C561   1.273       .  A
O557        C560   1.263       .  A
O558        C570   1.287       .  A
O559        C572   1.262       .  A
C560        O565   1.280       .  A
C560        C833   1.459       .  S
C561        C729   1.492       .  S
O563        C566   1.274       .  A
O564        C566   1.268       .  A
C566        C830   1.458       .  S
O567        C572   1.273       .  A
O568        C570   1.270       .  A
C569        O571   1.267       .  A
C569        C778   1.471       .  S
C570        C846   1.494       .  S
C572        C790   1.463       .  S
Fe573       O589   2.043       .  S
Fe573       O579   2.099       .  S
Fe573       O586   2.076       .  S
Fe573       O578   1.998       .  S
Fe573       O584   1.924       .  S
Fe574       O585   2.064       .  S
Fe574       O590   2.075       .  S
Fe574      O1665   2.041       .  S
Fe574      O1669   2.085       .  S
Fe574       O584   1.931       .  S
Fe575       O593   2.158       .  S
Fe575       O580   2.063       .  S
Fe575       O587   2.082       .  S
Fe575       O576   2.131       .  S
Fe575       O584   1.941       .  S
O576        C583   1.282       .  A
O577      Fe1662   2.058   1_554  S
O577        C591   1.272       .  A
O578        C583   1.258       .  A
O579        C582   1.275       .  A
O580        C592   1.267       .  A
O581      Fe1662   2.082   1_554  S
O581        C594   1.272       .  A
C582        O587   1.275       .  A
C582        C721   1.496       .  S
C583        C754   1.458       .  S
O585        C588   1.264       .  A
O586        C588   1.271       .  A
C588       C1022   1.473       .  S
O589       C1682   1.270       .  A
O590        C592   1.269       .  A
C591       O1681   1.289   1_554  A
C591       C1057   1.494       .  S
C592        C766   1.472       .  S
O593       C1679   1.292       .  A
C594       O1677   1.267   1_554  A
C594        C757   1.457       .  S
Fe595       O611   2.055       .  S
Fe595       O601   2.054       .  S
Fe595       O608   2.058       .  S
Fe595       O600   2.041       .  S
Fe595       O606   1.955       .  S
Fe596       O599   2.090       .  S
Fe596       O603   2.043       .  S
Fe596       O607   2.068       .  S
Fe596       O612   2.056       .  S
Fe596       O606   1.928       .  S
Fe597       O615   2.121       .  S
Fe597       O602   2.081       .  S
Fe597       O609   2.133       .  S
Fe597       O598   2.105       .  S
Fe597       O606   1.962       .  S
O598        C605   1.277       .  A
O599        C613   1.281       .  A
O600        C605   1.260       .  A
O601        C604   1.269       .  A
O602        C614   1.266       .  A
O603        C616   1.267       .  A
C604        O609   1.278       .  A
C604        C722   1.493   1_545  S
C605        C742   1.476       .  S
O607        C610   1.274       .  A
O608        C610   1.271       .  A
C610        C725   1.467       .  S
O611        C616   1.264       .  A
O612        C614   1.260       .  A
C613        O615   1.293       .  A
C613        C878   1.497       .  S
C614        C717   1.477       .  S
C616        C746   1.452       .  S
Fe617       O633   2.066       .  S
Fe617       O623   2.029       .  S
Fe617       O630   2.069       .  S
Fe617       O622   2.070       .  S
Fe617       O628   1.954       .  S
Fe618       O621   2.059       .  S
Fe618       O625   2.078       .  S
Fe618       O629   2.037       .  S
Fe618       O634   2.086       .  S
Fe618       O628   1.935       .  S
Fe619       O637   2.076       .  S
Fe619       O624   2.109       .  S
Fe619       O631   2.097       .  S
Fe619       O620   2.126       .  S
Fe619       O628   1.951       .  S
O620        C627   1.280       .  A
O621        C635   1.261       .  A
O622        C627   1.278       .  A
O623        C626   1.254       .  A
O624        C636   1.289       .  A
O625        C638   1.274       .  A
C626        O631   1.274       .  A
C626        C894   1.463       .  S
C627        C713   1.497       .  S
O629        C632   1.264       .  A
O630        C632   1.266       .  A
C632        C890   1.454       .  S
O633        C638   1.272       .  A
O634        C636   1.279       .  A
C635        O637   1.268       .  A
C635        C794   1.475       .  S
C636        C950   1.492       .  S
C638        C774   1.472       .  S
Fe639       O655   2.086       .  S
Fe639       O645   2.032       .  S
Fe639       O652   2.059       .  S
Fe639       O644   2.080       .  S
Fe639       O650   1.967       .  S
Fe640       O643   2.062       .  S
Fe640       O647   2.061       .  S
Fe640       O651   2.050       .  S
Fe640       O656   2.105       .  S
Fe640       O650   1.955       .  S
Fe641       O659   2.070       .  S
Fe641       O646   2.109       .  S
Fe641       O653   2.074       .  S
Fe641       O642   2.084       .  S
Fe641       O650   1.970       .  S
O642        C649   1.265       .  A
O643        C657   1.257       .  A
O644        C649   1.271       .  A
O645        C648   1.269       .  A
O646        C658   1.290       .  A
O647        C660   1.272       .  A
C648        O653   1.280       .  A
C648        C874   1.457       .  S
C649        C714   1.497       .  S
O651        C654   1.265       .  A
O652        C654   1.266       .  A
C654        C869   1.462       .  S
O655        C660   1.274       .  A
O656        C658   1.287       .  A
C657        O659   1.262       .  A
C657        C709   1.484       .  S
C658        C902   1.494       .  S
C660        C718   1.479       .  S
Fe661       O677   2.042       .  S
Fe661       O667   2.098       .  S
Fe661       O674   2.087       .  S
Fe661       O666   1.996       .  S
Fe661       O672   1.928       .  S
Fe662       O673   2.061       .  S
Fe662       O678   2.082       .  S
Fe662      O1753   2.057       .  S
Fe662      O1757   2.083       .  S
Fe662       O672   1.933       .  S
Fe663       O681   2.145       .  S
Fe663       O668   2.057       .  S
Fe663       O675   2.079       .  S
Fe663       O664   2.115       .  S
Fe663       O672   1.935       .  S
O664        C671   1.278       .  A
O665      Fe1750   2.063   1_554  S
O665        C679   1.274       .  A
O666        C671   1.259       .  A
O667        C670   1.276       .  A
O668        C680   1.265       .  A
O669      Fe1750   2.065   1_554  S
O669        C682   1.270       .  A
C670        O675   1.275       .  A
C670        C705   1.491       .  S
C671        C926   1.455       .  S
O673        C676   1.267       .  A
O674        C676   1.275       .  A
C676        C762   1.474       .  S
O677       C1770   1.267       .  A
O678        C680   1.270       .  A
C679       O1769   1.288   1_554  A
C679        C986   1.493       .  S
C680       C1042   1.468       .  S
O681       C1767   1.289       .  A
C682       O1765   1.267   1_554  A
C682        C930   1.456       .  S
Fe683       O699   2.035       .  S
Fe683       O689   2.057       .  S
Fe683       O696   2.050       .  S
Fe683       O688   2.037       .  S
Fe683       O694   1.955       .  S
Fe684       O687   2.140       .  S
Fe684       O691   2.052       .  S
Fe684       O695   2.113       .  S
Fe684       O700   2.059       .  S
Fe684       O694   1.948       .  S
Fe685       O703   2.083       .  S
Fe685       O690   2.066       .  S
Fe685       O697   2.119       .  S
Fe685       O686   2.084       .  S
Fe685       O694   1.945       .  S
O686        C693   1.274       .  A
O687        C701   1.285       .  A
O688        C693   1.262       .  A
O689        C692   1.270       .  A
O690        C702   1.265       .  A
O691        C704   1.267       .  A
C692        O697   1.275       .  A
C692        C706   1.492       .  S
C693        C905   1.464       .  S
O695        C698   1.282       .  A
O696        C698   1.271       .  A
C698        C710   1.478       .  S
O699        C704   1.259       .  A
O700        C702   1.262       .  A
C701        O703   1.288       .  A
C701        C806   1.501       .  S
C702        C734   1.470       .  S
C704        C910   1.444       .  S
C705        C706   1.360       .  D
C705        H707   1.085       .  S
C706        H708   1.087       .  S
C709        C710   1.342       .  D
C709        H711   1.087       .  S
C710        H712   1.088       .  S
C713        C714   1.367       .  D
C713        H715   1.086       .  S
C714        H716   1.086       .  S
C717        C718   1.345       .  D
C717        H719   1.087       .  S
C718        H720   1.087       .  S
C721        C722   1.362       .  D
C721        H723   1.086   1_565  S
C722        H724   1.086       .  S
C725        C726   1.340       .  D
C725        H727   1.088       .  S
C726        H728   1.087       .  S
C729        C730   1.363       .  D
C729        H731   1.085       .  S
C730        H732   1.084       .  S
C733        C734   1.343       .  D
C733        H735   1.087       .  S
C734        H736   1.087       .  S
C737        C738   1.348       .  D
C737        H739   1.087       .  S
C738        H740   1.087       .  S
C741        C742   1.352       .  D
C741        H743   1.086       .  S
C742        H744   1.086       .  S
C745        C746   1.351       .  D
C745        H747   1.087       .  S
C746        H748   1.088       .  S
C749        C750   1.360       .  D
C749        H751   1.084       .  S
C750        H752   1.086   1_545  S
C753        C754   1.354       .  D
C753        H755   1.087       .  S
C754        H756   1.085       .  S
C757        C758   1.348       .  D
C757        H759   1.087       .  S
C758        H760   1.087       .  S
C761        C762   1.340       .  D
C761        H763   1.088       .  S
C762        H764   1.086       .  S
C765        C766   1.342       .  D
C765        H767   1.087       .  S
C766        H768   1.088       .  S
C769       C1858   1.364   1_554  D
C769        H771   1.086       .  S
C770       C1857   1.357       .  D
C770        H772   1.084       .  S
C773        C774   1.343       .  D
C773        H775   1.087       .  S
C774        H776   1.087       .  S
C777        C778   1.345       .  D
C777        H779   1.087       .  S
C778        H780   1.088       .  S
C781        C782   1.344       .  D
C781        H783   1.087       .  S
C782        H784   1.088       .  S
C785        C786   1.365       .  D
C785        H787   1.086       .  S
C786        H788   1.086   1_565  S
C789        C790   1.338       .  D
C789        H791   1.087       .  S
C790        H792   1.086       .  S
C793        C794   1.343       .  D
C793        H795   1.088       .  S
C794        H796   1.087       .  S
C797        C798   1.361       .  D
C797        H799   1.087       .  S
C798        H800   1.085       .  S
C801        C802   1.341       .  D
C801        H803   1.086       .  S
C802        H804   1.088       .  S
C805        C806   1.368       .  D
C805        H807   1.089       .  S
C806        H808   1.089       .  S
C809        C810   1.351       .  D
C809        H811   1.087       .  S
C810        H812   1.087       .  S
C813        C814   1.354       .  D
C813        H815   1.086       .  S
C814        H816   1.086       .  S
C817        C818   1.346       .  D
C817        H819   1.087       .  S
C818        H820   1.087       .  S
C821       C1910   1.363   1_554  D
C821        H823   1.086       .  S
C822       C1909   1.366       .  D
C822        H824   1.086       .  S
C825        C826   1.361       .  D
C825        H827   1.086       .  S
C826        H828   1.086       .  S
C829        C830   1.352       .  D
C829        H831   1.085       .  S
C830        H832   1.087       .  S
C833        C834   1.354       .  D
C833        H835   1.087       .  S
C834        H836   1.087       .  S
C837        C838   1.351       .  D
C837        H839   1.087       .  S
C838        H840   1.087       .  S
C841        C842   1.351       .  D
C841        H843   1.087       .  S
C842        H844   1.086       .  S
C845        C846   1.356       .  D
C845        H847   1.086       .  S
C846        H848   1.086       .  S
C849        C850   1.341       .  D
C849        H851   1.087       .  S
C850        H852   1.088       .  S
C853        C854   1.361       .  D
C853        H855   1.086   1_565  S
C854        H856   1.086       .  S
C857        C858   1.352       .  D
C857        H859   1.087       .  S
C858        H860   1.087       .  S
C861        C862   1.355       .  D
C861        H863   1.087       .  S
C862        H864   1.087       .  S
C865        C866   1.342       .  D
C865        H867   1.088       .  S
C866        H868   1.086       .  S
C869        C870   1.359       .  D
C869        H871   1.087       .  S
C870        H872   1.086       .  S
C873        C874   1.351       .  D
C873        H875   1.087       .  S
C874        H876   1.088       .  S
C877        C878   1.352       .  D
C877        H879   1.087       .  S
C878        H880   1.087       .  S
C881        C882   1.341       .  D
C881        H883   1.087       .  S
C882        H884   1.088       .  S
C885        C886   1.364       .  D
C885        H887   1.086       .  S
C886        H888   1.086       .  S
C889        C890   1.354       .  D
C889        H891   1.087       .  S
C890        H892   1.086       .  S
C893        C894   1.354       .  D
C893        H895   1.087       .  S
C894        H896   1.087       .  S
C897       C1986   1.361       .  D
C897        H899   1.087       .  S
C898       C1985   1.360   1_554  D
C898        H900   1.086       .  S
C901        C902   1.355       .  D
C901        H903   1.086       .  S
C902        H904   1.086       .  S
C905        C906   1.352       .  D
C905        H907   1.087       .  S
C906        H908   1.087       .  S
C909        C910   1.353       .  D
C909        H911   1.087       .  S
C910        H912   1.088       .  S
C913        C914   1.339       .  D
C913        H915   1.087       .  S
C914        H916   1.087       .  S
C917        C918   1.342       .  D
C917        H919   1.087       .  S
C918        H920   1.088       .  S
C921        C922   1.358       .  D
C921        H923   1.086       .  S
C922        H924   1.086       .  S
C925        C926   1.350       .  D
C925        H927   1.087       .  S
C926        H928   1.086       .  S
C929        C930   1.353       .  D
C929        H931   1.087       .  S
C930        H932   1.087       .  S
C933        C934   1.363       .  D
C933        H935   1.084       .  S
C934        H936   1.086       .  S
C937        C938   1.358       .  D
C937        H939   1.086       .  S
C938        H940   1.086       .  S
C941        C942   1.351       .  D
C941        H943   1.087       .  S
C942        H944   1.087       .  S
C945        C946   1.353       .  D
C945        H947   1.082       .  S
C946        H948   1.087       .  S
C949        C950   1.354       .  D
C949        H951   1.086       .  S
C950        H952   1.086       .  S
C953        C954   1.355       .  D
C953        H955   1.086       .  S
C954        H956   1.087       .  S
C957        C958   1.353       .  D
C957        H959   1.087       .  S
C958        H960   1.087       .  S
C961        C962   1.339       .  D
C961        H963   1.088       .  S
C962        H964   1.086       .  S
C965        C966   1.362       .  D
C965        H967   1.087       .  S
C966        H968   1.086       .  S
C969        C970   1.344       .  D
C969        H971   1.088       .  S
C970        H972   1.087       .  S
C973        C974   1.345       .  D
C973        H975   1.087       .  S
C974        H976   1.087       .  S
C977        C978   1.349       .  D
C977        H979   1.087       .  S
C978        H980   1.087       .  S
C981        C982   1.342       .  D
C981        H983   1.088       .  S
C982        H984   1.086       .  S
C985        C986   1.355       .  D
C985        H987   1.086       .  S
C986        H988   1.086       .  S
C989        C990   1.341       .  D
C989        H991   1.087       .  S
C990        H992   1.087       .  S
C993        C994   1.358       .  D
C993        H995   1.086       .  S
C994        H996   1.086       .  S
C997        C998   1.338       .  D
C997        H999   1.086       .  S
C998       H1000   1.088       .  S
C1001      C1002   1.338       .  D
C1001      H1003   1.087       .  S
C1002      H1004   1.086       .  S
C1005      C1006   1.355       .  D
C1005      H1007   1.086       .  S
C1006      H1008   1.086       .  S
C1009      C1010   1.355       .  D
C1009      H1011   1.086       .  S
C1010      H1012   1.087       .  S
C1013      C1014   1.350       .  D
C1013      H1015   1.087       .  S
C1014      H1016   1.087       .  S
C1017      C1018   1.339       .  D
C1017      H1019   1.088       .  S
C1018      H1020   1.087       .  S
C1021      C1022   1.339       .  D
C1021      H1023   1.088       .  S
C1022      H1024   1.085       .  S
C1025      C1026   1.358       .  D
C1025      H1027   1.086       .  S
C1026      H1028   1.086       .  S
C1029      C1030   1.355       .  D
C1029      H1031   1.087       .  S
C1030      H1032   1.087       .  S
C1033      C1034   1.355       .  D
C1033      H1035   1.087       .  S
C1034      H1036   1.087       .  S
C1037      C2126   1.367   1_554  D
C1037      H1039   1.086       .  S
C1038      C2125   1.366       .  D
C1038      H1040   1.086       .  S
C1041      C1042   1.342       .  D
C1041      H1043   1.087       .  S
C1042      H1044   1.087       .  S
C1045      C1046   1.339       .  D
C1045      H1047   1.087       .  S
C1046      H1048   1.086       .  S
C1049      C1050   1.351       .  D
C1049      H1051   1.087       .  S
C1050      H1052   1.087       .  S
C1053      C1054   1.354       .  D
C1053      H1055   1.087       .  S
C1054      H1056   1.086       .  S
C1057      C1058   1.356       .  D
C1057      H1059   1.086       .  S
C1058      H1060   1.086       .  S
C1061      C1062   1.343       .  D
C1061      H1063   1.087       .  S
C1062      H1064   1.088       .  S
C1065      C1066   1.338       .  D
C1065      H1067   1.087       .  S
C1066      H1068   1.088       .  S
C1069      C1070   1.350       .  D
C1069      H1071   1.087       .  S
C1070      H1072   1.086       .  S
C1073      C1074   1.346       .  D
C1073      H1075   1.087       .  S
C1074      H1076   1.088       .  S
C1077      C1078   1.350       .  D
C1077      H1079   1.088       .  S
C1078      H1080   1.088       .  S
C1081      C1082   1.361       .  D
C1081      H1083   1.086       .  S
C1082      H1084   1.086       .  S
C1085      C1086   1.338       .  D
C1085      H1087   1.087       .  S
C1086      H1088   1.087       .  S
Fe1089     O1105   2.046       .  S
Fe1089     O1095   2.063       .  S
Fe1089     O1102   2.084       .  S
Fe1089     O1094   2.023       .  S
Fe1089     O1100   1.939       .  S
Fe1090     O1093   2.065       .  S
Fe1090     O1097   2.063       .  S
Fe1090     O1101   2.066       .  S
Fe1090     O1106   2.059       .  S
Fe1090     O1100   1.949       .  S
Fe1091     O1109   2.165       .  S
Fe1091     O1096   2.048       .  S
Fe1091     O1103   2.079       .  S
Fe1091     O1092   2.106       .  S
Fe1091     O1100   1.944       .  S
O1092      C1099   1.279       .  A
O1093      C1107   1.274       .  A
O1094      C1099   1.267       .  A
O1095      C1098   1.269       .  A
O1096      C1108   1.259       .  A
O1097      C1110   1.267       .  A
C1098      O1103   1.276       .  A
C1098      C2169   1.478       .  S
C1099      C2162   1.465       .  S
O1101      C1104   1.270       .  A
O1102      C1104   1.274       .  A
C1104      C2173   1.469       .  S
O1105      C1110   1.265       .  A
O1106      C1108   1.263       .  A
C1107      O1109   1.295       .  A
C1107      C2157   1.506       .  S
C1108      C2153   1.456       .  S
C1110      C2165   1.455       .  S
Fe1111     O1127   2.046       .  S
Fe1111     O1117   2.087       .  S
Fe1111     O1124   2.073       .  S
Fe1111     O1116   2.004       .  S
Fe1111     O1122   1.933       .  S
Fe1112     O1115   2.046       .  S
Fe1112     O1119   2.096       .  S
Fe1112     O1123   2.054       .  S
Fe1112     O1128   2.076       .  S
Fe1112     O1122   1.935       .  S
Fe1113     O1131   2.153       .  S
Fe1113     O1118   2.060       .  S
Fe1113     O1125   2.072       .  S
Fe1113     O1114   2.147       .  S
Fe1113     O1122   1.949       .  S
O1114      C1121   1.288       .  A
O1115      C1129   1.270       .  A
O1116      C1121   1.263       .  A
O1117      C1120   1.270       .  A
O1118      C1130   1.267       .  A
O1119      C1132   1.277       .  A
C1120      O1125   1.269       .  A
C1120      C2170   1.486       .  S
C1121      C2138   1.474       .  S
O1123      C1126   1.262       .  A
O1124      C1126   1.268       .  A
C1126      C2149   1.461       .  S
O1127      C1132   1.271       .  A
O1128      C1130   1.270       .  A
C1129      O1131   1.291       .  A
C1129      C2146   1.493       .  S
C1130      C2134   1.475       .  S
C1132      C2142   1.464       .  S
Fe1133     O1149   2.077       .  S
Fe1133     O1139   2.029   1_556  S
Fe1133     O1146   2.057       .  S
Fe1133     O1138   2.078       .  S
Fe1133     O1144   1.966       .  S
Fe1134     O1137   2.078       .  S
Fe1134     O1141   2.072       .  S
Fe1134     O1145   2.045       .  S
Fe1134     O1150   2.071       .  S
Fe1134     O1144   1.954       .  S
Fe1135     O1153   2.041       .  S
Fe1135     O1140   2.131       .  S
Fe1135     O1136   2.100       .  S
Fe1135     O1144   1.955       .  S
O1136      C1143   1.273       .  A
O1137      C1151   1.268       .  A
O1138      C1143   1.277       .  A
O1140      C1152   1.293       .  A
O1141      C1154   1.272       .  A
C1142      O1147   1.276       .  A
C1142      C2122   1.470       .  S
C1143      C2126   1.497       .  S
O1145      C1148   1.266       .  A
O1146      C1148   1.264       .  A
C1148      C2117   1.450       .  S
O1149      C1154   1.274       .  A
O1150      C1152   1.275       .  A
C1151      O1153   1.259       .  A
C1151      C2109   1.469       .  S
C1152      C2113   1.500       .  S
C1154      C2129   1.476       .  S
Fe1155     O1171   2.055       .  S
Fe1155     O1161   2.031       .  S
Fe1155     O1168   2.080       .  S
Fe1155     O1160   2.068       .  S
Fe1155     O1166   1.955       .  S
Fe1156     O1159   2.072       .  S
Fe1156     O1163   2.091       .  S
Fe1156     O1167   2.048       .  S
Fe1156     O1172   2.109       .  S
Fe1156     O1166   1.933       .  S
Fe1157     O1175   2.057       .  S
Fe1157     O1162   2.097       .  S
Fe1157     O1158   2.092       .  S
Fe1157     O1166   1.951       .  S
O1158      C1165   1.274       .  A
O1159      C1173   1.263       .  A
O1160      C1165   1.278       .  A
O1162      C1174   1.285       .  A
O1163      C1176   1.278       .  A
C1164      O1169   1.271       .  A
C1164      C2101   1.461       .  S
C1165      C2125   1.484       .  S
O1167      C1170   1.267       .  A
O1168      C1170   1.268       .  A
C1170      C2097   1.464       .  S
O1171      C1176   1.269       .  A
O1172      C1174   1.284       .  A
C1173      O1175   1.265       .  A
C1173      C2090   1.479       .  S
C1174      C2093   1.493       .  S
C1176      C2105   1.470       .  S
Fe1177     O1193   2.044       .  S
Fe1177     O1183   2.081       .  S
Fe1177     O1190   2.066       .  S
Fe1177     O1182   2.003       .  S
Fe1177     O1188   1.928       .  S
Fe1178     O1181   2.060       .  S
Fe1178     O1185   2.088       .  S
Fe1178     O1189   2.065       .  S
Fe1178     O1194   2.069       .  S
Fe1178     O1188   1.932       .  S
Fe1179     O1197   2.139       .  S
Fe1179     O1184   2.052       .  S
Fe1179     O1191   2.079       .  S
Fe1179     O1180   2.127       .  S
Fe1179     O1188   1.946       .  S
O1180      C1187   1.282       .  A
O1181      C1195   1.273       .  A
O1182      C1187   1.263       .  A
O1183      C1186   1.270       .  A
O1184      C1196   1.266       .  A
O1185      C1198   1.276       .  A
C1186      O1191   1.273       .  A
C1186      C2082   1.489       .  S
C1187      C2118   1.465       .  S
O1189      C1192   1.265       .  A
O1190      C1192   1.267       .  A
C1192      C2085   1.464       .  S
O1193      C1198   1.271       .  A
O1194      C1196   1.270       .  A
C1195      O1197   1.289       .  A
C1195      C2073   1.494       .  S
C1196      C2077   1.467       .  S
C1198      C2121   1.460       .  S
Fe1199     O1215   2.035       .  S
Fe1199     O1205   2.075       .  S
Fe1199     O1212   2.064       .  S
Fe1199     O1204   2.006       .  S
Fe1199     O1210   1.929       .  S
Fe1200     O1203   2.046       .  S
Fe1200     O1207   2.085       .  S
Fe1200     O1211   2.062       .  S
Fe1200     O1216   2.063       .  S
Fe1200     O1210   1.938       .  S
Fe1201     O1219   2.169       .  S
Fe1201     O1206   2.049       .  S
Fe1201     O1213   2.077       .  S
Fe1201     O1202   2.144       .  S
Fe1201     O1210   1.955       .  S
O1202      C1209   1.286       .  A
O1203      C1217   1.269       .  A
O1204      C1209   1.262       .  A
O1205      C1208   1.268       .  A
O1206      C1218   1.265       .  A
O1207      C1220   1.276       .  A
C1208      O1213   1.274       .  A
C1208      C2081   1.480       .  S
C1209      C2098   1.472       .  S
O1211      C1214   1.262       .  A
O1212      C1214   1.267       .  A
C1214      C2069   1.467       .  S
O1215      C1220   1.268       .  A
O1216      C1218   1.269       .  A
C1217      O1219   1.294       .  A
C1217      C2065   1.502       .  S
C1218      C2061   1.464       .  S
C1220      C2102   1.454       .  S
Fe1221     O1237   2.056   1_655  S
Fe1221     O1227   2.029       .  S
Fe1221     O1234   2.069       .  S
Fe1221     O1226   2.064       .  S
Fe1221     O1232   1.951       .  S
Fe1222     O1225   2.063       .  S
Fe1222     O1229   2.085   1_655  S
Fe1222     O1232   1.934       .  S
Fe1223     O1241   2.071       .  S
Fe1223     O1228   2.109       .  S
Fe1223     O1235   2.104       .  S
Fe1223     O1224   2.126       .  S
Fe1223     O1232   1.950       .  S
O1224      C1231   1.280       .  A
O1225      C1239   1.263       .  A
O1226      C1231   1.277       .  A
O1227      C1230   1.253       .  A
O1229      C1242   1.276       .  A
C1230      O1235   1.274       .  A
C1230      C2045   1.467       .  S
C1231      C2053   1.495       .  S
O1233      C1236   1.264       .  A
C1236      C2041   1.448   1_655  S
O1237      C1242   1.270       .  A
O1238      C1240   1.279       .  A
C1239      O1241   1.268       .  A
C1239      C2050   1.476       .  S
C1240      C2037   1.488       .  S
C1242      C2057   1.468       .  S
Fe1243     O1259   2.094   1_655  S
Fe1243     O1249   1.998       .  S
Fe1243     O1256   2.055       .  S
Fe1243     O1248   2.092       .  S
Fe1243     O1254   1.948       .  S
Fe1244     O1247   2.068       .  S
Fe1244     O1251   2.042       .  S
Fe1244     O1255   2.072       .  S
Fe1244     O1260   2.057       .  S
Fe1244     O1254   1.941       .  S
Fe1245     O1263   2.055       .  S
Fe1245     O1250   2.154       .  S
Fe1245     O1257   2.113       .  S
Fe1245     O1246   2.074       .  S
Fe1245     O1254   1.944       .  S
O1246      C1253   1.274       .  A
O1247      C1261   1.265       .  A
O1248      C1253   1.275       .  A
O1249      C1252   1.263       .  A
O1250      C1262   1.292       .  A
O1251      C1264   1.265   1_655  A
C1252      O1257   1.281       .  A
C1252      C2033   1.460       .  S
C1253      C2054   1.494       .  S
O1255      C1258   1.269       .  A
O1256      C1258   1.269       .  A
C1258      C2030   1.464   1_655  S
O1259      C1264   1.275       .  A
O1260      C1262   1.274       .  A
C1261      O1263   1.263       .  A
C1261      C2174   1.469       .  S
C1262      C2026   1.499       .  S
C1264      C2062   1.462       .  S
Fe1265     O1281   2.096       .  S
Fe1265     O1271   1.994       .  S
Fe1265     O1278   2.046       .  S
Fe1265     O1270   2.090       .  S
Fe1265     O1276   1.942       .  S
Fe1266     O1269   2.060       .  S
Fe1266     O1273   2.048       .  S
Fe1266     O1277   2.063       .  S
Fe1266     O1282   2.054       .  S
Fe1266     O1276   1.934       .  S
Fe1267     O1285   2.046       .  S
Fe1267     O1272   2.160       .  S
Fe1267     O1279   2.126       .  S
Fe1267     O1268   2.075       .  S
Fe1267     O1276   1.940       .  S
O1268      C1275   1.273       .  A
O1269      C1283   1.265       .  A
O1270      C1275   1.273       .  A
O1271      C1274   1.263       .  A
O1272      C1284   1.294       .  A
O1273      C1286   1.264       .  A
C1274      O1279   1.284       .  A
C1274      C2017   1.462       .  S
C1275      C2021   1.491       .  S
O1277      C1280   1.270       .  A
O1278      C1280   1.268       .  A
C1280      C2013   1.454       .  S
O1281      C1286   1.274       .  A
O1282      C1284   1.272       .  A
C1283      O1285   1.262       .  A
C1283      C2150   1.460       .  S
C1284      C2009   1.501       .  S
C1286      C2078   1.464       .  S
Fe1287     O1303   2.094       .  S
Fe1287     O1293   1.991       .  S
Fe1287     O1300   2.037       .  S
Fe1287     O1292   2.066       .  S
Fe1287     O1298   1.941       .  S
Fe1288     O1291   2.054       .  S
Fe1288     O1295   2.048       .  S
Fe1288     O1298   1.947       .  S
Fe1289     O1307   2.041       .  S
Fe1289     O1294   2.159       .  S
Fe1289     O1301   2.109       .  S
Fe1289     O1290   2.075       .  S
Fe1289     O1298   1.947       .  S
O1290      C1297   1.271       .  A
O1291      C1305   1.261       .  A
O1292      C1297   1.268       .  A
O1293      C1296   1.263       .  A
O1295      C1308   1.268       .  A
C1296      O1301   1.282       .  A
C1296      C1997   1.463       .  S
C1297      C2022   1.487       .  S
O1299      C1302   1.273       .  A
C1302      C1994   1.452       .  S
O1303      C1308   1.276       .  A
O1304      C1306   1.269       .  A
C1305      O1307   1.256       .  A
C1305      C2002   1.463       .  S
C1306      C1989   1.492       .  S
C1308      C2005   1.470       .  S
Fe1309     O1325   2.043       .  S
Fe1309     O1315   2.055       .  S
Fe1309     O1322   2.077       .  S
Fe1309     O1314   2.038       .  S
Fe1309     O1320   1.949       .  S
Fe1310     O1313   2.093       .  S
Fe1310     O1317   2.045       .  S
Fe1310     O1321   2.068       .  S
Fe1310     O1326   2.048       .  S
Fe1310     O1320   1.957       .  S
Fe1311     O1329   2.131       .  S
Fe1311     O1316   2.046       .  S
Fe1311     O1323   2.078       .  S
Fe1311     O1320   1.963       .  S
O1312      C1319   1.282       .  A
O1313      C1327   1.286       .  A
O1315      C1318   1.262       .  A
O1316      C1328   1.256       .  A
O1317      C1330   1.261       .  A
C1318      O1323   1.261       .  A
C1318      C1985   1.489       .  S
C1319      C1977   1.473       .  S
O1321      C1324   1.274       .  A
O1322      C1324   1.273       .  A
C1324      C2049   1.473       .  S
O1325      C1330   1.262       .  A
O1326      C1328   1.258       .  A
C1327      O1329   1.297       .  A
C1327      C1973   1.497       .  S
C1328      C1969   1.468       .  S
C1330      C1981   1.453       .  S
Fe1331     O1347   2.039       .  S
Fe1331     O1337   2.102       .  S
Fe1331     O1344   2.088       .  S
Fe1331     O1336   1.990       .  S
Fe1331     O1342   1.929       .  S
Fe1332     O1335   2.037       .  S
Fe1332     O1339   2.074       .  S
Fe1332     O1343   2.051       .  S
Fe1332     O1348   2.068       .  S
Fe1332     O1342   1.923       .  S
Fe1333     O1351   2.171       .  S
Fe1333     O1338   2.048       .  S
Fe1333     O1345   2.077       .  S
Fe1333     O1342   1.937       .  S
O1334      C1341   1.290       .  A
O1335      C1349   1.267       .  A
O1337      C1340   1.275       .  A
O1338      C1350   1.265       .  A
O1339      C1352   1.275       .  A
C1340      O1345   1.274       .  A
C1340      C1986   1.495       .  S
C1341      C1958   1.468       .  S
O1343      C1346   1.263       .  A
O1344      C1346   1.271       .  A
C1346      C2001   1.462       .  S
O1347      C1352   1.268       .  A
O1348      C1350   1.268       .  A
C1349      O1351   1.295       .  A
C1349      C1965   1.496       .  S
C1350      C1953   1.464       .  S
C1352      C1961   1.453       .  S
Fe1353     O1369   2.090   1_455  S
Fe1353     O1359   2.002       .  S
Fe1353     O1366   2.046       .  S
Fe1353     O1358   2.096       .  S
Fe1353     O1364   1.937       .  S
Fe1354     O1357   2.074       .  S
Fe1354     O1361   2.051       .  S
Fe1354     O1364   1.931       .  S
Fe1355     O1373   2.043       .  S
Fe1355     O1360   2.140       .  S
Fe1355     O1367   2.130       .  S
Fe1355     O1356   2.058       .  S
Fe1355     O1364   1.940       .  S
O1356      C1363   1.268       .  A
O1357      C1371   1.270       .  A
O1358      C1363   1.274       .  A
O1359      C1362   1.262       .  A
O1361      C1374   1.265   1_455  A
C1362      O1367   1.283       .  A
C1362      C1950   1.463       .  S
C1363      C1942   1.479       .  S
O1365      C1368   1.262       .  A
C1368      C1945   1.450   1_455  S
O1369      C1374   1.274       .  A
O1370      C1372   1.276       .  A
C1371      O1373   1.264       .  A
C1371      C1937   1.462       .  S
C1372      C1933   1.496       .  S
C1374      C1970   1.468       .  S
Fe1375     O1391   2.053   1_455  S
Fe1375     O1381   2.040       .  S
Fe1375     O1388   2.052       .  S
Fe1375     O1380   2.051       .  S
Fe1375     O1386   1.957       .  S
Fe1376     O1379   2.061       .  S
Fe1376     O1383   2.061       .  S
Fe1376     O1387   2.035       .  S
Fe1376     O1392   2.061       .  S
Fe1376     O1386   1.945       .  S
Fe1377     O1395   2.048       .  S
Fe1377     O1382   2.123       .  S
Fe1377     O1389   2.098       .  S
Fe1377     O1378   2.094       .  S
Fe1377     O1386   1.947       .  S
O1378      C1385   1.273       .  A
O1379      C1393   1.265       .  A
O1380      C1385   1.270       .  A
O1381      C1384   1.259       .  A
O1382      C1394   1.289       .  A
O1383      C1396   1.271   1_455  A
C1384      O1389   1.277       .  A
C1384      C1929   1.470       .  S
C1385      C1941   1.482   1_565  S
O1387      C1390   1.262       .  A
O1388      C1390   1.262       .  A
C1390      C1926   1.442   1_455  S
O1391      C1396   1.268       .  A
O1392      C1394   1.272       .  A
C1393      O1395   1.263       .  A
C1393      C2070   1.462       .  S
C1394      C2094   1.491       .  S
C1396      C2154   1.457       .  S
Fe1397     O1413   2.055       .  S
Fe1397     O1403   2.100       .  S
Fe1397     O1410   2.088       .  S
Fe1397     O1402   1.996       .  S
Fe1397     O1408   1.937       .  S
Fe1398     O1401   2.053       .  S
Fe1398     O1405   2.071       .  S
Fe1398     O1409   2.057       .  S
Fe1398     O1414   2.075       .  S
Fe1398     O1408   1.931       .  S
Fe1399     O1417   2.160       .  S
Fe1399     O1404   2.057       .  S
Fe1399     O1411   2.070       .  S
Fe1399     O1408   1.935       .  S
O1400      C1407   1.281       .  A
O1401      C1415   1.272       .  A
O1403      C1406   1.276       .  A
O1404      C1416   1.262       .  A
O1405      C1418   1.271       .  A
C1406      O1411   1.273       .  A
C1406      C1910   1.492       .  S
C1407      C1917   1.459       .  S
O1409      C1412   1.268       .  A
O1410      C1412   1.274       .  A
C1412      C1938   1.465       .  S
O1413      C1418   1.270       .  A
O1414      C1416   1.268       .  A
C1415      O1417   1.293       .  A
C1415      C1913   1.497       .  S
C1416      C2058   1.469       .  S
C1418      C1922   1.462       .  S
Fe1419     O1435   2.042       .  S
Fe1419     O1425   2.066       .  S
Fe1419     O1432   2.075       .  S
Fe1419     O1424   2.036       .  S
Fe1419     O1430   1.960       .  S
Fe1420     O1423   2.115       .  S
Fe1420     O1427   2.069       .  S
Fe1420     O1431   2.063       .  S
Fe1420     O1436   2.049       .  S
Fe1420     O1430   1.978       .  S
Fe1421     O1439   2.111       .  S
Fe1421     O1426   2.046       .  S
Fe1421     O1433   2.087       .  S
Fe1421     O1430   1.963       .  S
O1422      C1429   1.281       .  A
O1423      C1437   1.285       .  A
O1425      C1428   1.267       .  A
O1426      C1438   1.256       .  A
O1427      C1440   1.266       .  A
C1428      O1433   1.265       .  A
C1428      C1909   1.498       .  S
C1429      C1897   1.466       .  S
O1431      C1434   1.271       .  A
O1432      C1434   1.274       .  A
C1434      C1906   1.473       .  S
O1435      C1440   1.263       .  A
O1436      C1438   1.258       .  A
C1437      O1439   1.295       .  A
C1437      C1893   1.497       .  S
C1438      C2006   1.468       .  S
C1440      C1901   1.460       .  S
Fe1441     O1457   2.046       .  S
Fe1441     O1447   2.092       .  S
Fe1441     O1454   2.077   1_455  S
Fe1441     O1446   1.998       .  S
Fe1441     O1452   1.932       .  S
Fe1442     O1453   2.043       .  S
Fe1442     O1458   2.086       .  S
Fe1442     O1452   1.932       .  S
Fe1443     O1461   2.171       .  S
Fe1443     O1448   2.052       .  S
Fe1443     O1455   2.070       .  S
Fe1443     O1444   2.136       .  S
Fe1443     O1452   1.934       .  S
O1444      C1451   1.284       .  A
O1445      C1459   1.272       .  A
O1446      C1451   1.261       .  A
O1447      C1450   1.274       .  A
O1448      C1460   1.262       .  A
O1449      C1462   1.273       .  A
C1450      O1455   1.273       .  A
C1450      C1886   1.489       .  S
C1451      C2029   1.464       .  S
O1453      C1456   1.263   1_455  A
O1454      C1456   1.272       .  A
C1456      C1890   1.454       .  S
O1458      C1460   1.270       .  A
C1459      C2066   1.502       .  S
C1460      C2106   1.471       .  S
C1462      C2034   1.457   1_455  S
Fe1463     O1479   2.044       .  S
Fe1463     O1469   2.056       .  S
Fe1463     O1476   2.078   1_455  S
Fe1463     O1468   2.033       .  S
Fe1463     O1474   1.948       .  S
Fe1464     O1467   2.092       .  S
Fe1464     O1471   2.046       .  S
Fe1464     O1475   2.068       .  S
Fe1464     O1480   2.046       .  S
Fe1464     O1474   1.957       .  S
Fe1465     O1483   2.126       .  S
Fe1465     O1470   2.042       .  S
Fe1465     O1477   2.076       .  S
Fe1465     O1466   2.094       .  S
Fe1465     O1474   1.968       .  S
O1466      C1473   1.284       .  A
O1467      C1481   1.285       .  A
O1468      C1473   1.272       .  A
O1469      C1472   1.263       .  A
O1470      C1482   1.255       .  A
O1471      C1484   1.261       .  A
C1472      O1477   1.261       .  A
C1472      C1885   1.489       .  S
C1473      C2042   1.470       .  S
O1475      C1478   1.273   1_455  A
O1476      C1478   1.273       .  A
C1478      C1881   1.475       .  S
O1479      C1484   1.263       .  A
O1480      C1482   1.258       .  A
C1481      O1483   1.295       .  A
C1481      C1914   1.495       .  S
C1482      C1877   1.465       .  S
C1484      C2046   1.453   1_455  S
Fe1485     O1501   2.031       .  S
Fe1485     O1491   2.065       .  S
Fe1485     O1498   2.081   1_655  S
Fe1485     O1490   2.019       .  S
Fe1485     O1496   1.945       .  S
Fe1486     O1497   2.074       .  S
Fe1486     O1502   2.069       .  S
Fe1486     O1496   1.995       .  S
Fe1487     O1505   2.123       .  S
Fe1487     O1492   2.025       .  S
Fe1487     O1499   2.081       .  S
Fe1487     O1488   2.079       .  S
Fe1487     O1496   1.964       .  S
O1488      C1495   1.275       .  A
O1489      C1503   1.272       .  A
O1490      C1495   1.265       .  A
O1491      C1494   1.270       .  A
O1492      C1504   1.254       .  A
O1493      C1506   1.269       .  A
C1494      O1499   1.267       .  A
C1494      C1874   1.492   1_565  S
C1495      C1925   1.462       .  S
O1497      C1500   1.276   1_655  A
O1498      C1500   1.275       .  A
C1500      C2089   1.470       .  S
O1502      C1504   1.263       .  A
C1503      C2158   1.506       .  S
C1504      C1869   1.463       .  S
C1506      C1930   1.465   1_655  S
Fe1507     O1523   2.055       .  S
Fe1507     O1513   2.095       .  S
Fe1507     O1520   2.079   1_655  S
Fe1507     O1512   2.006       .  S
Fe1507     O1518   1.929       .  S
Fe1508     O1511   2.051       .  S
Fe1508     O1515   2.081       .  S
Fe1508     O1519   2.060       .  S
Fe1508     O1524   2.081       .  S
Fe1508     O1518   1.930       .  S
Fe1509     O1527   2.163       .  S
Fe1509     O1514   2.058       .  S
Fe1509     O1521   2.081       .  S
Fe1509     O1510   2.120       .  S
Fe1509     O1518   1.940       .  S
O1510      C1517   1.280       .  A
O1511      C1525   1.270       .  A
O1512      C1517   1.262       .  A
O1513      C1516   1.275       .  A
O1514      C1526   1.264       .  A
O1515      C1528   1.273       .  A
C1516      O1521   1.277       .  A
C1516      C1873   1.497       .  S
C1517      C1946   1.465       .  S
O1519      C1522   1.267   1_655  A
O1520      C1522   1.272       .  A
C1522      C1865   1.464       .  S
O1523      C1528   1.271       .  A
O1524      C1526   1.270       .  A
C1525      O1527   1.293       .  A
C1525      C1974   1.499       .  S
C1526      C1861   1.472       .  S
C1528      C1949   1.464   1_655  S
Fe1529     O1545   2.079       .  S
Fe1529     O1535   2.049       .  S
Fe1529     O1542   2.063       .  S
Fe1529     O1534   2.083       .  S
Fe1529     O1540   1.948       .  S
Fe1530     O1533   2.050       .  S
Fe1530     O1537   2.055       .  S
Fe1530     O1541   2.070       .  S
Fe1530     O1546   2.078       .  S
Fe1530     O1540   1.938       .  S
Fe1531     O1549   2.042       .  S
Fe1531     O1536   2.130       .  S
Fe1531     O1532   2.066       .  S
Fe1531     O1540   1.937       .  S
O1532      C1539   1.271       .  A
O1533      C1547   1.266       .  A
O1534      C1539   1.273       .  A
O1536      C1548   1.284       .  A
O1537      C1550   1.264       .  A
C1538      O1543   1.274       .  A
C1538      C2166   1.463       .  S
C1539      C1857   1.480       .  S
O1541      C1544   1.271       .  A
O1542      C1544   1.270       .  A
C1544      C2161   1.462       .  S
O1545      C1550   1.273       .  A
O1546      C1548   1.274       .  A
C1547      O1549   1.264       .  A
C1547      C1889   1.451       .  S
C1548      C2025   1.498       .  S
C1550      C1870   1.463       .  S
Fe1551     O1567   2.055       .  S
Fe1551     O1557   2.040       .  S
Fe1551     O1564   2.082       .  S
Fe1551     O1556   2.074       .  S
Fe1551     O1562   1.960       .  S
Fe1552     O1555   2.068       .  S
Fe1552     O1559   2.080       .  S
Fe1552     O1563   2.041       .  S
Fe1552     O1568   2.094       .  S
Fe1552     O1562   1.939       .  S
Fe1553     O1571   2.064       .  S
Fe1553     O1558   2.115       .  S
Fe1553     O1554   2.111       .  S
Fe1553     O1562   1.945       .  S
O1554      C1561   1.279       .  A
O1555      C1569   1.263       .  A
O1556      C1561   1.279       .  A
O1558      C1570   1.289       .  A
O1559      C1572   1.276       .  A
C1560      O1565   1.277       .  A
C1560      C2141   1.472       .  S
C1561      C1858   1.493       .  S
O1563      C1566   1.264       .  A
O1564      C1566   1.267       .  A
C1566      C2137   1.462       .  S
O1567      C1572   1.270       .  A
O1568      C1570   1.280       .  A
C1569      O1571   1.268       .  A
C1569      C1849   1.482       .  S
C1570      C2010   1.498       .  S
C1572      C1853   1.467       .  S
Fe1573     O1589   2.090       .  S
Fe1573     O1579   2.007       .  S
Fe1573     O1586   2.051       .  S
Fe1573     O1578   2.089       .  S
Fe1573     O1584   1.949       .  S
Fe1574     O1577   2.063       .  S
Fe1574     O1581   2.066       .  S
Fe1574     O1585   2.070       .  S
Fe1574     O1590   2.081       .  S
Fe1574     O1584   1.941       .  S
Fe1575     O1593   2.046       .  S
Fe1575     O1580   2.140       .  S
Fe1575     O1587   2.113       .  S
Fe1575     O1576   2.078       .  S
Fe1575     O1584   1.948       .  S
O1576      C1583   1.273       .  A
O1577      C1591   1.267       .  A
O1578      C1583   1.272       .  A
O1579      C1582   1.265       .  A
O1580      C1592   1.288       .  A
O1581      C1594   1.267       .  A
C1582      O1587   1.280       .  A
C1582      C1846   1.458       .  S
C1583      C1837   1.494       .  S
O1585      C1588   1.273       .  A
O1586      C1588   1.270       .  A
C1588      C1841   1.458       .  S
O1589      C1594   1.271       .  A
O1590      C1592   1.276       .  A
C1591      O1593   1.263       .  A
C1591      C2086   1.461       .  S
C1592      C2114   1.503       .  S
C1594      C2133   1.475       .  S
Fe1595     O1611   2.079       .  S
Fe1595     O1601   2.030       .  S
Fe1595     O1608   2.032       .  S
Fe1595     O1600   2.054       .  S
Fe1595     O1606   1.941       .  S
Fe1596     O1599   2.050       .  S
Fe1596     O1603   2.047       .  S
Fe1596     O1606   1.952       .  S
Fe1597     O1615   2.060       .  S
Fe1597     O1602   2.122       .  S
Fe1597     O1609   2.087       .  S
Fe1597     O1598   2.092       .  S
Fe1597     O1606   1.965       .  S
O1598      C1605   1.262       .  A
O1599      C1613   1.258       .  A
O1600      C1605   1.261       .  A
O1601      C1604   1.273       .  A
O1603      C1616   1.266       .  A
C1604      O1609   1.285       .  A
C1604      C1833   1.459       .  S
C1605      C1838   1.494       .  S
O1607      C1610   1.275       .  A
C1610      C1829   1.467       .  S
O1611      C1616   1.273       .  A
O1612      C1614   1.273       .  A
C1613      O1615   1.259       .  A
C1613      C1905   1.473       .  S
C1614      C1825   1.486       .  S
C1616      C1954   1.461       .  S
Fe1617     O1633   2.053       .  S
Fe1617     O1623   2.037       .  S
Fe1617     O1630   2.072       .  S
Fe1617     O1622   2.059       .  S
Fe1617     O1628   1.946       .  S
Fe1618     O1621   2.054       .  S
Fe1618     O1625   2.074       .  S
Fe1618     O1629   2.032       .  S
Fe1618     O1634   2.080       .  S
Fe1618     O1628   1.921       .  S
Fe1619     O1637   2.074       .  S
Fe1619     O1624   2.105       .  S
Fe1619     O1631   2.115       .  S
Fe1619     O1620   2.111       .  S
Fe1619     O1628   1.947       .  S
O1620      C1627   1.277       .  A
O1621      C1635   1.260       .  A
O1622      C1627   1.274       .  A
O1623      C1626   1.256       .  A
O1624      C1636   1.288       .  A
O1625      C1638   1.274       .  A
C1626      O1631   1.277       .  A
C1626      C1902   1.477       .  S
C1627      C1818   1.484       .  S
O1629      C1632   1.263       .  A
O1630      C1632   1.267       .  A
C1632      C1898   1.451       .  S
O1633      C1638   1.269       .  A
O1634      C1636   1.279       .  A
C1635      O1637   1.266       .  A
C1635      C1814   1.468       .  S
C1636      C1826   1.484       .  S
C1638      C1821   1.463       .  S
Fe1639     O1655   2.087       .  S
Fe1639     O1645   2.003       .  S
Fe1639     O1652   2.043       .  S
Fe1639     O1644   2.090       .  S
Fe1639     O1650   1.935       .  S
Fe1640     O1643   2.074       .  S
Fe1640     O1647   2.049       .  S
Fe1640     O1651   2.069       .  S
Fe1640     O1656   2.055       .  S
Fe1640     O1650   1.931       .  S
Fe1641     O1659   2.043       .  S
Fe1641     O1646   2.151       .  S
Fe1641     O1653   2.129       .  S
Fe1641     O1642   2.066       .  S
Fe1641     O1650   1.939       .  S
O1642      C1649   1.271       .  A
O1643      C1657   1.270       .  A
O1644      C1649   1.273       .  A
O1645      C1648   1.262       .  A
O1646      C1658   1.289       .  A
O1647      C1660   1.265       .  A
C1648      O1653   1.283       .  A
C1648      C1921   1.462       .  S
C1649      C1817   1.483       .  S
O1651      C1654   1.272       .  A
O1652      C1654   1.267       .  A
C1654      C1918   1.453       .  S
O1655      C1660   1.274       .  A
O1656      C1658   1.269       .  A
C1657      O1659   1.264       .  A
C1657      C1866   1.460       .  S
C1658      C1934   1.497       .  S
C1660      C1878   1.466       .  S
Fe1661     O1677   2.047       .  S
Fe1661     O1667   2.090       .  S
Fe1661     O1674   2.093       .  S
Fe1661     O1666   2.005       .  S
Fe1661     O1672   1.929       .  S
Fe1662     O1673   2.060       .  S
Fe1662     O1678   2.079       .  S
Fe1662     O1672   1.936       .  S
Fe1663     O1681   2.146       .  S
Fe1663     O1668   2.051       .  S
Fe1663     O1675   2.070       .  S
Fe1663     O1664   2.118       .  S
Fe1663     O1672   1.934       .  S
O1664      C1671   1.281       .  A
O1665      C1679   1.269       .  A
O1666      C1671   1.263       .  A
O1667      C1670   1.274       .  A
O1668      C1680   1.263       .  A
O1669      C1682   1.276       .  A
C1670      O1675   1.272       .  A
C1670      C1809   1.486   1_565  S
C1671      C1842   1.461       .  S
O1673      C1676   1.267       .  A
O1674      C1676   1.277       .  A
C1676      C2110   1.477       .  S
O1678      C1680   1.269       .  A
C1679      C2145   1.493       .  S
C1680      C1854   1.464       .  S
C1682      C1845   1.456       .  S
Fe1683     O1699   2.044       .  S
Fe1683     O1689   2.049       .  S
Fe1683     O1696   2.068       .  S
Fe1683     O1688   2.049       .  S
Fe1683     O1694   1.955       .  S
Fe1684     O1687   2.097       .  S
Fe1684     O1691   2.034       .  S
Fe1684     O1695   2.061       .  S
Fe1684     O1700   2.047       .  S
Fe1684     O1694   1.939       .  S
Fe1685     O1703   2.127       .  S
Fe1685     O1690   2.087       .  S
Fe1685     O1697   2.105       .  S
Fe1685     O1686   2.102       .  S
Fe1685     O1694   1.966       .  S
O1686      C1693   1.286       .  A
O1687      C1701   1.285       .  A
O1688      C1693   1.269       .  A
O1689      C1692   1.262       .  A
O1690      C1702   1.265       .  A
O1691      C1704   1.264       .  A
C1692      O1697   1.268       .  A
C1692      C1810   1.485       .  S
C1693      C1830   1.475       .  S
O1695      C1698   1.273       .  A
O1696      C1698   1.272       .  A
C1698      C1813   1.470       .  S
O1699      C1704   1.261       .  A
O1700      C1702   1.255       .  A
C1701      O1703   1.294       .  A
C1701      C1966   1.501       .  S
C1702      C1805   1.479       .  S
C1704      C1834   1.449       .  S
Fe1705     O1721   2.056       .  S
Fe1705     O1711   2.033       .  S
Fe1705     O1718   2.069       .  S
Fe1705     O1710   2.065       .  S
Fe1705     O1716   1.952       .  S
Fe1706     O1709   2.067       .  S
Fe1706     O1713   2.090       .  S
Fe1706     O1717   2.042       .  S
Fe1706     O1722   2.088       .  S
Fe1706     O1716   1.933       .  S
Fe1707     O1725   2.072       .  S
Fe1707     O1712   2.102       .  S
Fe1707     O1719   2.096       .  S
Fe1707     O1708   2.120       .  S
Fe1707     O1716   1.949       .  S
O1708      C1715   1.279       .  A
O1709      C1723   1.264       .  A
O1710      C1715   1.275       .  A
O1711      C1714   1.256       .  A
O1712      C1724   1.287       .  A
O1713      C1726   1.277       .  A
C1714      O1719   1.273       .  A
C1714      C1982   1.465       .  S
C1715      C1801   1.489       .  S
O1717      C1720   1.264       .  A
O1718      C1720   1.266       .  A
C1720      C1978   1.454       .  S
O1721      C1726   1.270       .  A
O1722      C1724   1.280       .  A
C1723      O1725   1.268       .  A
C1723      C1882   1.479       .  S
C1724      C2038   1.488       .  S
C1726      C1862   1.470       .  S
Fe1727     O1743   2.090       .  S
Fe1727     O1733   2.030       .  S
Fe1727     O1740   2.049       .  S
Fe1727     O1732   2.078       .  S
Fe1727     O1738   1.965       .  S
Fe1728     O1731   2.083       .  S
Fe1728     O1735   2.067       .  S
Fe1728     O1739   2.063       .  S
Fe1728     O1744   2.099       .  S
Fe1728     O1738   1.964       .  S
Fe1729     O1747   2.050       .  S
Fe1729     O1734   2.114       .  S
Fe1729     O1741   2.079       .  S
Fe1729     O1730   2.070       .  S
Fe1729     O1738   1.966       .  S
O1730      C1737   1.263       .  A
O1731      C1745   1.263       .  A
O1732      C1737   1.268       .  A
O1733      C1736   1.269       .  A
O1734      C1746   1.291       .  A
O1735      C1748   1.276       .  A
C1736      O1741   1.279       .  A
C1736      C1962   1.459       .  S
C1737      C1802   1.490       .  S
O1739      C1742   1.265       .  A
O1740      C1742   1.263       .  A
C1742      C1957   1.463       .  S
O1743      C1748   1.275       .  A
O1744      C1746   1.286       .  A
C1745      O1747   1.258       .  A
C1745      C1797   1.484       .  S
C1746      C1990   1.492       .  S
C1748      C1806   1.482       .  S
Fe1749     O1765   2.047       .  S
Fe1749     O1755   2.074       .  S
Fe1749     O1762   2.074       .  S
Fe1749     O1754   2.000       .  S
Fe1749     O1760   1.941       .  S
Fe1750     O1761   2.081       .  S
Fe1750     O1766   2.078       .  S
Fe1750     O1760   1.944       .  S
Fe1751     O1769   2.138       .  S
Fe1751     O1756   2.067       .  S
Fe1751     O1763   2.086       .  S
Fe1751     O1752   2.108       .  S
Fe1751     O1760   1.945       .  S
O1752      C1759   1.279       .  A
O1753      C1767   1.272       .  A
O1754      C1759   1.264       .  A
O1755      C1758   1.270       .  A
O1756      C1768   1.266       .  A
O1757      C1770   1.274       .  A
C1758      O1763   1.274       .  A
C1758      C1793   1.491       .  S
C1759      C2014   1.456       .  S
O1761      C1764   1.274       .  A
O1762      C1764   1.270       .  A
C1764      C1850   1.471       .  S
O1766      C1768   1.268       .  A
C1767      C2074   1.494       .  S
C1768      C2130   1.474       .  S
C1770      C2018   1.458       .  S
Fe1771     O1787   2.025       .  S
Fe1771     O1777   2.069       .  S
Fe1771     O1784   2.090       .  S
Fe1771     O1776   2.006       .  S
Fe1771     O1782   1.945       .  S
Fe1772     O1775   2.092       .  S
Fe1772     O1779   2.079       .  S
Fe1772     O1783   2.085       .  S
Fe1772     O1788   2.056       .  S
Fe1772     O1782   1.968       .  S
Fe1773     O1791   2.125       .  S
Fe1773     O1778   2.056       .  S
Fe1773     O1785   2.080       .  S
Fe1773     O1774   2.098       .  S
Fe1773     O1782   1.946       .  S
O1774      C1781   1.278       .  A
O1775      C1789   1.278       .  A
O1776      C1781   1.264       .  A
O1777      C1780   1.268       .  A
O1778      C1790   1.262       .  A
O1779      C1792   1.272       .  A
C1780      O1785   1.271       .  A
C1780      C1794   1.485       .  S
C1781      C1993   1.455       .  S
O1783      C1786   1.272       .  A
O1784      C1786   1.273       .  A
C1786      C1798   1.489       .  S
O1787      C1792   1.260       .  A
O1788      C1790   1.264       .  A
C1789      O1791   1.291       .  A
C1789      C1894   1.497       .  S
C1790      C1822   1.464       .  S
C1792      C1998   1.445       .  S
C1793      C1794   1.360       .  D
C1793      H1795   1.086       .  S
C1794      H1796   1.088       .  S
C1797      C1798   1.348       .  D
C1797      H1799   1.088       .  S
C1798      H1800   1.087       .  S
C1801      C1802   1.363       .  D
C1801      H1803   1.087       .  S
C1802      H1804   1.086       .  S
C1805      C1806   1.343       .  D
C1805      H1807   1.087       .  S
C1806      H1808   1.087       .  S
C1809      C1810   1.358       .  D
C1809      H1811   1.086       .  S
C1810      H1812   1.087   1_545  S
C1813      C1814   1.342       .  D
C1813      H1815   1.088       .  S
C1814      H1816   1.087       .  S
C1817      C1818   1.359       .  D
C1817      H1819   1.086       .  S
C1818      H1820   1.087       .  S
C1821      C1822   1.340       .  D
C1821      H1823   1.088       .  S
C1822      H1824   1.087       .  S
C1825      C1826   1.346       .  D
C1825      H1827   1.088       .  S
C1826      H1828   1.087       .  S
C1829      C1830   1.357       .  D
C1829      H1831   1.087       .  S
C1830      H1832   1.087       .  S
C1833      C1834   1.350       .  D
C1833      H1835   1.087       .  S
C1834      H1836   1.087       .  S
C1837      C1838   1.362   1_565  D
C1837      H1839   1.086   1_565  S
C1838      H1840   1.087   1_545  S
C1841      C1842   1.351       .  D
C1841      H1843   1.087       .  S
C1842      H1844   1.087       .  S
C1845      C1846   1.347       .  D
C1845      H1847   1.087       .  S
C1846      H1848   1.087       .  S
C1849      C1850   1.342       .  D
C1849      H1851   1.087       .  S
C1850      H1852   1.088       .  S
C1853      C1854   1.340       .  D
C1853      H1855   1.088       .  S
C1854      H1856   1.087       .  S
C1857      H1859   1.087       .  S
C1858      H1860   1.086       .  S
C1861      C1862   1.341       .  D
C1861      H1863   1.087       .  S
C1862      H1864   1.087       .  S
C1865      C1866   1.339       .  D
C1865      H1867   1.086       .  S
C1866      H1868   1.086       .  S
C1869      C1870   1.335       .  D
C1869      H1871   1.089       .  S
C1870      H1872   1.086       .  S
C1873      C1874   1.365       .  D
C1873      H1875   1.086   1_545  S
C1874      H1876   1.082       .  S
C1877      C1878   1.340       .  D
C1877      H1879   1.088       .  S
C1878      H1880   1.087       .  S
C1881      C1882   1.345       .  D
C1881      H1883   1.088       .  S
C1882      H1884   1.087       .  S
C1885      C1886   1.362       .  D
C1885      H1887   1.086       .  S
C1886      H1888   1.086       .  S
C1889      C1890   1.337       .  D
C1889      H1891   1.084       .  S
C1890      H1892   1.087       .  S
C1893      C1894   1.367       .  D
C1893      H1895   1.088       .  S
C1894      H1896   1.088       .  S
C1897      C1898   1.351       .  D
C1897      H1899   1.087       .  S
C1898      H1900   1.087       .  S
C1901      C1902   1.357       .  D
C1901      H1903   1.086       .  S
C1902      H1904   1.086       .  S
C1905      C1906   1.345       .  D
C1905      H1907   1.087       .  S
C1906      H1908   1.087       .  S
C1909      H1911   1.086       .  S
C1910      H1912   1.085       .  S
C1913      C1914   1.356       .  D
C1913      H1915   1.086       .  S
C1914      H1916   1.086       .  S
C1917      C1918   1.350       .  D
C1917      H1919   1.087       .  S
C1918      H1920   1.087       .  S
C1921      C1922   1.354       .  D
C1921      H1923   1.086       .  S
C1922      H1924   1.087       .  S
C1925      C1926   1.346       .  D
C1925      H1927   1.088       .  S
C1926      H1928   1.086   1_655  S
C1929      C1930   1.357       .  D
C1929      H1931   1.087       .  S
C1930      H1932   1.086       .  S
C1933      C1934   1.359       .  D
C1933      H1935   1.086       .  S
C1934      H1936   1.086       .  S
C1937      C1938   1.339       .  D
C1937      H1939   1.087       .  S
C1938      H1940   1.087       .  S
C1941      C1942   1.358       .  D
C1941      H1943   1.087       .  S
C1942      H1944   1.086   1_545  S
C1945      C1946   1.350       .  D
C1945      H1947   1.088       .  S
C1946      H1948   1.087       .  S
C1949      C1950   1.353       .  D
C1949      H1951   1.087       .  S
C1950      H1952   1.085       .  S
C1953      C1954   1.339       .  D
C1953      H1955   1.088       .  S
C1954      H1956   1.087       .  S
C1957      C1958   1.357       .  D
C1957      H1959   1.087       .  S
C1958      H1960   1.086       .  S
C1961      C1962   1.350       .  D
C1961      H1963   1.087       .  S
C1962      H1964   1.087       .  S
C1965      C1966   1.352       .  D
C1965      H1967   1.087       .  S
C1966      H1968   1.088       .  S
C1969      C1970   1.341       .  D
C1969      H1971   1.087       .  S
C1970      H1972   1.087       .  S
C1973      C1974   1.358       .  D
C1973      H1975   1.086       .  S
C1974      H1976   1.086       .  S
C1977      C1978   1.352       .  D
C1977      H1979   1.087       .  S
C1978      H1980   1.086       .  S
C1981      C1982   1.353       .  D
C1981      H1983   1.087       .  S
C1982      H1984   1.087       .  S
C1985      H1987   1.087       .  S
C1986      H1988   1.086       .  S
C1989      C1990   1.354       .  D
C1989      H1991   1.086       .  S
C1990      H1992   1.087       .  S
C1993      C1994   1.350       .  D
C1993      H1995   1.087       .  S
C1994      H1996   1.087       .  S
C1997      C1998   1.350       .  D
C1997      H1999   1.087       .  S
C1998      H2000   1.087       .  S
C2001      C2002   1.338       .  D
C2001      H2003   1.086       .  S
C2002      H2004   1.087       .  S
C2005      C2006   1.342       .  D
C2005      H2007   1.086       .  S
C2006      H2008   1.086       .  S
C2009      C2010   1.359       .  D
C2009      H2011   1.086       .  S
C2010      H2012   1.086       .  S
C2013      C2014   1.350       .  D
C2013      H2015   1.087       .  S
C2014      H2016   1.087       .  S
C2017      C2018   1.352       .  D
C2017      H2019   1.087       .  S
C2018      H2020   1.087       .  S
C2021      C2022   1.362       .  D
C2021      H2023   1.086       .  S
C2022      H2024   1.087       .  S
C2025      C2026   1.355       .  D
C2025      H2027   1.087       .  S
C2026      H2028   1.086       .  S
C2029      C2030   1.356       .  D
C2029      H2031   1.087       .  S
C2030      H2032   1.087       .  S
C2033      C2034   1.353       .  D
C2033      H2035   1.087       .  S
C2034      H2036   1.087       .  S
C2037      C2038   1.352       .  D
C2037      H2039   1.086       .  S
C2038      H2040   1.086       .  S
C2041      C2042   1.351       .  D
C2041      H2043   1.086       .  S
C2042      H2044   1.087       .  S
C2045      C2046   1.355       .  D
C2045      H2047   1.087       .  S
C2046      H2048   1.087       .  S
C2049      C2050   1.343       .  D
C2049      H2051   1.088       .  S
C2050      H2052   1.087       .  S
C2053      C2054   1.366       .  D
C2053      H2055   1.085       .  S
C2054      H2056   1.086       .  S
C2057      C2058   1.341       .  D
C2057      H2059   1.087       .  S
C2058      H2060   1.087       .  S
C2061      C2062   1.338       .  D
C2061      H2063   1.087       .  S
C2062      H2064   1.087       .  S
C2065      C2066   1.352       .  D
C2065      H2067   1.088       .  S
C2066      H2068   1.087       .  S
C2069      C2070   1.341       .  D
C2069      H2071   1.086       .  S
C2070      H2072   1.089       .  S
C2073      C2074   1.355       .  D
C2073      H2075   1.086       .  S
C2074      H2076   1.086       .  S
C2077      C2078   1.339       .  D
C2077      H2079   1.087       .  S
C2078      H2080   1.087       .  S
C2081      C2082   1.360       .  D
C2081      H2083   1.086       .  S
C2082      H2084   1.086       .  S
C2085      C2086   1.341       .  D
C2085      H2087   1.086       .  S
C2086      H2088   1.088       .  S
C2089      C2090   1.343       .  D
C2089      H2091   1.089       .  S
C2090      H2092   1.087       .  S
C2093      C2094   1.354       .  D
C2093      H2095   1.087       .  S
C2094      H2096   1.086       .  S
C2097      C2098   1.356       .  D
C2097      H2099   1.088       .  S
C2098      H2100   1.086       .  S
C2101      C2102   1.347       .  D
C2101      H2103   1.087       .  S
C2102      H2104   1.087       .  S
C2105      C2106   1.339       .  D
C2105      H2107   1.087       .  S
C2106      H2108   1.087       .  S
C2109      C2110   1.339       .  D
C2109      H2111   1.088       .  S
C2110      H2112   1.086       .  S
C2113      C2114   1.359       .  D
C2113      H2115   1.086       .  S
C2114      H2116   1.086       .  S
C2117      C2118   1.351       .  D
C2117      H2119   1.088       .  S
C2118      H2120   1.087       .  S
C2121      C2122   1.354       .  D
C2121      H2123   1.086       .  S
C2122      H2124   1.087       .  S
C2125      H2127   1.086       .  S
C2126      H2128   1.086       .  S
C2129      C2130   1.347       .  D
C2129      H2131   1.087       .  S
C2130      H2132   1.087       .  S
C2133      C2134   1.344       .  D
C2133      H2135   1.087       .  S
C2134      H2136   1.087       .  S
C2137      C2138   1.357       .  D
C2137      H2139   1.088       .  S
C2138      H2140   1.086       .  S
C2141      C2142   1.353       .  D
C2141      H2143   1.087       .  S
C2142      H2144   1.087       .  S
C2145      C2146   1.347       .  D
C2145      H2147   1.088       .  S
C2146      H2148   1.088       .  S
C2149      C2150   1.340       .  D
C2149      H2151   1.087       .  S
C2150      H2152   1.088       .  S
C2153      C2154   1.338       .  D
C2153      H2155   1.087       .  S
C2154      H2156   1.088       .  S
C2157      C2158   1.363       .  D
C2157      H2159   1.086       .  S
C2158      H2160   1.086       .  S
C2161      C2162   1.348       .  D
C2161      H2163   1.087       .  S
C2162      H2164   1.087       .  S
C2165      C2166   1.350       .  D
C2165      H2167   1.087       .  S
C2166      H2168   1.087       .  S
C2169      C2170   1.359       .  D
C2169      H2171   1.086       .  S
C2170      H2172   1.086       .  S
C2173      C2174   1.344       .  D
C2173      H2175   1.086       .  S
C2174      H2176   1.088       .  S
