geometry optimzed in LAMMPS
_audit_creation_date              2020-12-01 
_audit_creation_method            'lammps2cif' 
_symmetry_space_group_name_H-M    'P1' 
_symmetry_Int_Tables_number       1 
_symmetry_cell_setting            triclinic 
loop_ 
_symmetry_equiv_pos_as_xyz 
  x,y,z 
_cell_length_a                    32.37498221 
_cell_length_b                    32.29183744625683 
_cell_length_c                    44.190115704553826 
_cell_angle_alpha                 89.9078450596279 
_cell_angle_beta                  90.43604204970791 
_cell_angle_gamma                 120.77921196847099 
loop_ 
_atom_site_label 
_atom_site_type_symbol 
_atom_site_fract_x 
_atom_site_fract_y 
_atom_site_fract_z 
_atom_site_charge 
O1          O  0.21528065  0.70873201  0.33791810    -0.84800
O2          O  0.21982657  0.77140345  0.29365112    -0.81800
C3          C  0.20826113  0.79758113  0.27897066     0.98700
O4          O  0.19464006  0.82239210  0.29322072    -0.81900
O5          O  0.10280004  0.75004848  0.29864000    -0.84500
C6          C  0.06681258  0.71147717  0.30732797     1.03200
O7          O  0.06833596  0.69287641  0.33239982    -0.77300
O8          O  0.13762029  0.66627792  0.33103768    -0.77500
C9          C  0.17846072  0.67045068  0.32896739     1.03200
O10         O  0.23545882  0.77983176  0.38289746    -0.84800
O11         O  0.25417932  0.84787452  0.33824895    -0.81800
C12         C  0.23800600  0.87220953  0.35033550     0.98700
O13         O  0.19323328  0.85207941  0.35457206    -0.81900
O14         O  0.09439831  0.78245683  0.35692291    -0.84500
C15         C  0.08461580  0.76076970  0.38206212     1.03200
O16         O  0.10563493  0.73856986  0.38999987    -0.77300
O17         O  0.17204275  0.70848228  0.39077491    -0.77400
C18         C  0.21163926  0.74407428  0.40013851     1.03100
Cr19       Cr  0.22677292  0.77593379  0.33843497     1.93700
Cr20       Cr  0.14788800  0.79916267  0.32728104     1.93200
Cr21       Cr  0.12417634  0.70547079  0.35971324     1.39100
O22         O  0.16598643  0.76003482  0.34210706    -1.22500
O23         O  0.70500774  0.49999668  0.25577748    -0.84800
O24         O  0.76755373  0.55122655  0.21065141    -0.81800
C25         C  0.79499907  0.58662595  0.19443606     0.98700
O26         O  0.82202133  0.62790362  0.20595612    -0.81900
O27         O  0.75508206  0.65411418  0.20997320    -0.84500
C28         C  0.71709233  0.65249009  0.21790552     1.03200
O29         O  0.69906905  0.63558868  0.24364522    -0.77300
O30         O  0.66802014  0.53874177  0.24506864    -0.77500
C31         C  0.66937644  0.50047858  0.24447769     1.03200
O32         O  0.77893754  0.55442338  0.29934605    -0.84800
O33         O  0.84546315  0.59565499  0.25312173    -0.81800
C34         C  0.87287817  0.63802813  0.26280557     0.98700
O35         O  0.85651072  0.66593165  0.26584548    -0.81900
O36         O  0.79098416  0.69957383  0.26725731    -0.84500
C37         C  0.76933890  0.69000667  0.29238043     1.03200
O38         O  0.74492999  0.64702828  0.30138921    -0.77300
O39         O  0.70924097  0.54917757  0.30567589    -0.77400
C40         C  0.74371006  0.54497039  0.31610221     1.03100
Cr41       Cr  0.77361731  0.55400622  0.25488582     1.93700
Cr42       Cr  0.80342027  0.65784646  0.23889242     1.93200
Cr43       Cr  0.70907434  0.59302329  0.27273535     1.39100
O44         O  0.76215511  0.60204193  0.25579986    -1.22500
O45         O  0.50113631  0.78796878  0.16279434    -0.84800
O46         O  0.56146993  0.79226876  0.11759747    -0.81800
C47         C  0.60014849  0.80756570  0.10320244     0.98700
O48         O  0.64022280  0.82441854  0.11702063    -0.81900
O49         O  0.65929492  0.91271309  0.13562619    -0.84500
C50         C  0.65643296  0.94477183  0.14987235     1.03200
O51         O  0.63354443  0.93486939  0.17453479    -0.77300
O52         O  0.53861015  0.86661267  0.16450896    -0.77500
C53         C  0.50181047  0.82694428  0.15760634     1.03200
O54         O  0.55076515  0.75736273  0.20422746    -0.84800
O55         O  0.60124882  0.75075152  0.15628072    -0.81800
C56         C  0.64168741  0.76514518  0.16868920     0.98700
O57         O  0.66770077  0.80880180  0.17666063    -0.81900
O58         O  0.69413798  0.90556143  0.19291602    -0.84500
C59         C  0.67628312  0.90649576  0.21818976     1.03200
O60         O  0.63396724  0.87421898  0.22335343    -0.77300
O61         O  0.53798345  0.81446950  0.21817461    -0.77400
C62         C  0.54046365  0.77766136  0.22476992     1.03100
Cr63       Cr  0.55655618  0.77618498  0.16094471     1.93700
Cr64       Cr  0.66106103  0.86033056  0.15680742     1.93200
Cr65       Cr  0.58686944  0.87032925  0.19355827     1.39100
O66         O  0.60143733  0.83598257  0.16990183    -1.22500
O67         O  0.50454545  0.69949131  0.41561027    -0.84800
O68         O  0.56093518  0.76656128  0.45862992    -0.81800
C69         C  0.59869178  0.79471273  0.47325889     0.98700
O70         O  0.63835753  0.81924665  0.45978533    -0.81900
O71         O  0.66442715  0.75061317  0.45356173    -0.84500
C72         C  0.66169836  0.71256092  0.44370609     1.03200
O73         O  0.63998355  0.69435374  0.41900986    -0.77300
O74         O  0.54454584  0.66339828  0.42307038    -0.77500
C75         C  0.50650488  0.66434724  0.42657374     1.03200
O76         O  0.55248202  0.77137846  0.36933893    -0.84800
O77         O  0.59988519  0.84119027  0.41342897    -0.81800
C78         C  0.64058219  0.86665039  0.40127083     0.98700
O79         O  0.66783933  0.84963481  0.39842608    -0.81900
O80         O  0.70113481  0.78574002  0.39502728    -0.84500
C81         C  0.68902643  0.76485977  0.36963854     1.03200
O82         O  0.64508733  0.73924636  0.36247504    -0.77300
O83         O  0.54632309  0.70116313  0.36306010    -0.77400
C84         C  0.54369752  0.73623515  0.35241822     1.03100
Cr85       Cr  0.55792758  0.76882650  0.41400389     1.93700
Cr86       Cr  0.66334149  0.79842857  0.42549537     1.93200
Cr87       Cr  0.59445652  0.70335874  0.39315229     1.39100
O88         O  0.60549700  0.75684544  0.41086197    -1.22500
O89         O  0.30182859  0.49465842  0.48340982    -0.84800
O90         O  0.21023398  0.42849843  0.46655746    -0.81800
C91         C  0.21330451  0.39876643  0.44938909     0.98700
O92         O  0.22125733  0.36764508  0.46056789    -0.81900
O93         O  0.26669920  0.33268892  0.49448741    -0.84500
C94         C  0.31089121  0.35935801  0.48845710     1.03200
O95         O  0.33341355  0.40351409  0.49584513    -0.77300
O96         O  0.34990570  0.49276015  0.51726169    -0.77500
C97         C  0.34367697  0.51063064  0.49353995     1.03200
O98         O  0.26770816  0.49075421  0.04711177    -0.84800
O99         O  0.17902196  0.42286951  0.02799358    -0.81800
C100        C  0.14505021  0.38122564  0.02179764     0.98700
O101        O  0.15381146  0.35147947  0.00882750    -0.81900
O102        O  0.20952699  0.32472531  0.04477912    -0.84500
C103        C  0.24710972  0.33125155  0.05818531     1.03200
O104        O  0.28788850  0.36318997  0.04911324    -0.77300
O105        O  0.29054476  0.44399370  0.06808742    -0.77400
C106        C  0.27368755  0.47142580  0.07053120     1.03100
Cr107      Cr  0.24217100  0.45544204  0.50690743     1.93700
Cr108      Cr  0.21555365  0.34858661  0.50324321     1.93200
Cr109      Cr  0.31093955  0.42656882  0.03069792     1.39100
O110        O  0.25597516  0.40943172  0.51407336    -1.22500
O111        O  0.79427209  0.28448198  0.05963157    -0.84800
O112        O  0.77499865  0.19418662  0.04666781    -0.81800
C113        C  0.80707572  0.19925395  0.02818425     0.98700
O114        O  0.84891953  0.21231665  0.03743362    -0.81900
O115        O  0.93373179  0.26813074  0.06651978    -0.84500
C116        C  0.94875416  0.31131612  0.05906404     1.03200
O117        O  0.92558848  0.33175556  0.06642373    -0.77300
O118        O  0.84895508  0.34053925  0.08885691    -0.77500
C119        C  0.81962700  0.32801861  0.06704864     1.03200
O120        O  0.77838085  0.26047741  0.12466515    -0.84800
O121        O  0.76416615  0.17281955  0.11118099    -0.81800
C122        C  0.77446218  0.14109821  0.10558844     0.98700
O123        O  0.81033308  0.15109706  0.08927810    -0.81900
O124        O  0.89545664  0.21600460  0.12125777    -0.84500
C125        C  0.92605267  0.25602633  0.13304320     1.03200
O126        O  0.93176687  0.29472152  0.12234459    -0.77300
O127        O  0.85126520  0.29082509  0.14284780    -0.77400
C128        C  0.80670314  0.27118888  0.14713990     1.03100
Cr129      Cr  0.78316931  0.22992227  0.08579706     1.93700
Cr130      Cr  0.86968668  0.21436076  0.07949762     1.93200
Cr131      Cr  0.88564275  0.31006917  0.10389524     1.39100
O132        O  0.84606189  0.25141062  0.08954362    -1.22500
O133        O  0.52068264  0.22470620  0.41858937    -0.84800
O134        O  0.45637604  0.22329622  0.37580155    -0.81800
C135        C  0.41651941  0.20890097  0.36252880     0.98700
O136        O  0.37969211  0.19708810  0.37844391    -0.81900
O137        O  0.35828551  0.10490867  0.38349368    -0.84500
C138        C  0.36424923  0.07095509  0.39151795     1.03200
O139        O  0.39122517  0.07594610  0.41390550    -0.77300
O140        O  0.48525388  0.14725247  0.41234735    -0.77500
C141        C  0.52212125  0.18820062  0.41003168     1.03200
O142        O  0.46944871  0.24223946  0.46462254    -0.84800
O143        O  0.41690910  0.25733796  0.42172344    -0.81800
C144        C  0.37905881  0.24033649  0.43733054     0.98700
O145        O  0.35387276  0.19540350  0.44165911    -0.81900
O146        O  0.32492030  0.09613757  0.44290684    -0.84500
C147        C  0.33984639  0.08353018  0.46560967     1.03200
O148        O  0.38352918  0.10706988  0.47304351    -0.77300
O149        O  0.47796948  0.18017128  0.47356448    -0.77400
C150        C  0.47887674  0.21806707  0.48297352     1.03100
Cr151      Cr  0.46269630  0.23245965  0.42039838     1.93700
Cr152      Cr  0.35860719  0.15055108  0.41298155     1.93200
Cr153      Cr  0.43396632  0.13104740  0.44190523     1.39100
O154        O  0.41817908  0.17080098  0.42538020    -1.22500
O155        O  0.71534395  0.22057977  0.33807299    -0.84800
O156        O  0.77471372  0.21606938  0.38114239    -0.81800
C157        C  0.79866436  0.20087357  0.39493413     0.98700
O158        O  0.82233718  0.18725998  0.37937755    -0.81900
O159        O  0.74662616  0.09729232  0.36905260    -0.84500
C160        C  0.70906596  0.06275344  0.35770321     1.03200
O161        O  0.69091688  0.06950402  0.33394535    -0.77300
O162        O  0.67043948  0.14255265  0.34124413    -0.77500
C163        C  0.67744315  0.18378937  0.34727014     1.03200
O164        O  0.78832047  0.24293234  0.29311661    -0.84800
O165        O  0.85174026  0.25209391  0.33780692    -0.81800
C166        C  0.87370541  0.23531412  0.32351154     0.98700
O167        O  0.85259593  0.19076644  0.31764133    -0.81900
O168        O  0.77818930  0.09361017  0.30976768    -0.84500
C169        C  0.75514311  0.08741074  0.28523306     1.03200
O170        O  0.73924874  0.11465387  0.27885009    -0.77300
O171        O  0.71516382  0.18395310  0.28225057    -0.77400
C172        C  0.75485680  0.22041878  0.27404488     1.03100
Cr173      Cr  0.78115220  0.22881598  0.33702967     1.93700
Cr174      Cr  0.79790253  0.14434002  0.34272391     1.93200
Cr175      Cr  0.70736558  0.13053084  0.31054685     1.39100
O176        O  0.76205657  0.16763577  0.32984214    -1.22500
O177        O  0.30311066  0.79263734  0.09195730    -0.84800
O178        O  0.24008580  0.79158198  0.13374515    -0.81800
C179        C  0.21466602  0.80510331  0.14718393     0.98700
O180        O  0.19306968  0.82188181  0.13222001    -0.81900
O181        O  0.26868299  0.91384139  0.12049684    -0.84500
C182        C  0.30639423  0.94707521  0.10841776     1.03200
O183        O  0.32103609  0.93948302  0.08378140    -0.77300
O184        O  0.34608120  0.87126633  0.09266929    -0.77500
C185        C  0.34152973  0.83112995  0.09904347     1.03200
O186        O  0.23002341  0.76606421  0.04520589    -0.84800
O187        O  0.16474961  0.75437058  0.08885625    -0.81800
C188        C  0.14174549  0.77081979  0.07524172     0.98700
O189        O  0.16046788  0.81544674  0.07079368    -0.81900
O190        O  0.23119518  0.91116003  0.06180547    -0.84500
C191        C  0.24934290  0.91440964  0.03610093     1.03200
O192        O  0.26912593  0.89019058  0.03054582    -0.77300
O193        O  0.30167439  0.82620853  0.03578621    -0.77400
C194        C  0.26433357  0.78811196  0.02690106     1.03100
Cr195      Cr  0.23577943  0.78051073  0.08940746     1.93700
Cr196      Cr  0.21586255  0.86348852  0.09530677     1.93200
Cr197      Cr  0.30553447  0.87878273  0.06220031     1.39100
O198        O  0.25252568  0.84112026  0.08243631    -1.22500
O199        O  0.22422504  0.51259197  0.26299848    -0.84800
O200        O  0.22521652  0.44856976  0.30323148    -0.81800
C201        C  0.21099945  0.40904303  0.31655463     0.98700
O202        O  0.19595602  0.37139076  0.30060669    -0.81900
O203        O  0.10546263  0.35575738  0.29343486    -0.84500
C204        C  0.07083370  0.35864556  0.28292803     1.03200
O205        O  0.07607923  0.38179666  0.25863880    -0.77300
O206        O  0.14592545  0.47641812  0.26463118    -0.77500
C207        C  0.18640828  0.51197199  0.27126441     1.03200
O208        O  0.24624233  0.46443884  0.21487180    -0.84800
O209        O  0.25776337  0.40857862  0.25646174    -0.81800
C210        C  0.23897086  0.36907278  0.24188545     0.98700
O211        O  0.19403606  0.34501237  0.23807979    -0.81900
O212        O  0.09756431  0.31963424  0.23367658    -0.84500
C213        C  0.09171816  0.33581647  0.20892521     1.03200
O214        O  0.11927674  0.37929364  0.20234797    -0.77300
O215        O  0.18572183  0.47507682  0.20530116    -0.77400
C216        C  0.22236886  0.47387089  0.19638519     1.03100
Cr217      Cr  0.23432231  0.45582302  0.25895957     1.93700
Cr218      Cr  0.15040704  0.35223871  0.26533742     1.93200
Cr219      Cr  0.13468293  0.42756504  0.23407805     1.39100
O220        O  0.17299675  0.41200877  0.25279565    -1.22500
O221        O  0.78730908  0.49478529  0.00340944    -0.84800
O222        O  0.78992252  0.55196229  0.04933913    -0.81800
C223        C  0.80473642  0.58878307  0.06554923     0.98700
O224        O  0.82393935  0.63056636  0.05399327    -0.81900
O225        O  0.91405818  0.64727535  0.04262199    -0.84500
C226        C  0.94716352  0.64372993  0.03051430     1.03200
O227        O  0.93919221  0.62202716  0.00531327    -0.77300
O228        O  0.86500971  0.52769630  0.00820496    -0.77500
C229        C  0.82341237  0.49164477  0.01087037     1.03200
O230        O  0.76747570  0.55171190  0.46183335    -0.84800
O231        O  0.75962519  0.60134420  0.50969813    -0.81800
C232        C  0.77936973  0.64299896  0.49806183     0.98700
O233        O  0.82353637  0.66813222  0.99413190    -0.81900
O234        O  0.91771029  0.68850059  0.48540251    -0.84500
C235        C  0.92188531  0.67646605  0.45880070     1.03200
O236        O  0.89563151  0.63331395  0.45031066    -0.77300
O237        O  0.82413895  0.53756207  0.44919960    -0.77400
C238        C  0.78640647  0.53852784  0.44222698     1.03100
Cr239      Cr  0.78094048  0.55362491  0.00572958     1.93700
Cr240      Cr  0.86754103  0.65477825  0.01779668     1.93200
Cr241      Cr  0.87780508  0.57985090  0.47872521     1.39100
O242        O  0.84279135  0.59679877  0.00125290    -1.22500
O243        O  0.51092010  0.29902716  0.17575363    -0.84800
O244        O  0.44795910  0.23464718  0.21713465    -0.81800
C245        C  0.40902190  0.20662705  0.23035359     0.98700
O246        O  0.37075267  0.18248181  0.21492005    -0.81900
O247        O  0.35156477  0.25522300  0.20576583    -0.84500
C248        C  0.35574010  0.29332087  0.19494018     1.03200
O249        O  0.37997995  0.31166902  0.17123772    -0.77300
O250        O  0.47429361  0.33985977  0.17684525    -0.77500
C251        C  0.51010693  0.33626432  0.18347950     1.03200
O252        O  0.46419844  0.22651024  0.12919388    -0.84800
O253        O  0.40986292  0.15958901  0.17177955    -0.81800
C254        C  0.37149813  0.13697851  0.15638749     0.98700
O255        O  0.34526272  0.15473953  0.15190595    -0.81900
O256        O  0.31709230  0.22304742  0.14681779    -0.84500
C257        C  0.33197823  0.24603362  0.12234654     1.03200
O258        O  0.37537483  0.26411789  0.11513681    -0.77300
O259        O  0.47206971  0.29607683  0.11821429    -0.77400
C260        C  0.47517572  0.25984732  0.11032923     1.03100
Cr261      Cr  0.45509125  0.23108473  0.17300243     1.93700
Cr262      Cr  0.35069359  0.20619924  0.17869349     1.93200
Cr263      Cr  0.42482184  0.29925546  0.14672076     1.39100
O264        O  0.41021547  0.24585996  0.16613797    -1.22500
C265        C  0.26940288  0.35005461  0.22996604    -0.04800
C266        C  0.24991285  0.29967487  0.22652395    -0.01900
C267        C  0.27803140  0.28178137  0.21458981     0.03100
C268        C  0.32704546  0.31339751  0.20769415    -0.04800
C269        C  0.34617203  0.36368270  0.20997954    -0.01900
C270        C  0.31752748  0.38190583  0.22084983     0.03100
C271        C  0.20070627  0.26542487  0.23516003     0.37800
C272        C  0.39502651  0.39707129  0.20041624     0.37700
C273        C  0.33731452  0.43364783  0.22114576     0.36200
C274        C  0.25484909  0.23096382  0.20679008     0.36200
N275        N  0.35325244  0.47493564  0.22119771    -0.38700
N276        N  0.23597255  0.19061728  0.20017620    -0.38700
N277        N  0.43379101  0.42399907  0.19258148    -0.38100
N278        N  0.16147006  0.23794051  0.24185761    -0.38100
C279        C  0.09221838  0.73686175  0.06470159    -0.04800
C280        C  0.05326507  0.72120748  0.08444656    -0.01900
C281        C  0.00582458  0.69010426  0.07386498     0.03100
C282        C  0.99720588  0.67052124  0.04393234    -0.04800
C283        C  0.03780232  0.68363320  0.02522967    -0.01900
C284        C  0.08420814  0.71915845  0.03495988     0.03100
C285        C  0.06204056  0.73916417  0.11536357     0.37800
C286        C  0.03273862  0.66342553  0.99514677     0.37700
C287        C  0.12317939  0.74098308  0.01349395     0.36200
C288        C  0.96676415  0.68105939  0.09383334     0.36200
N289        N  0.15385809  0.76004285  0.99619067    -0.38700
N290        N  0.93676963  0.67591495  0.11020214    -0.38700
N291        N  0.02930151  0.64757741  0.97115344    -0.38100
N292        N  0.06916709  0.75349212  0.13998537    -0.38100
C293        C  0.35708420  0.08893387  0.14431882    -0.04800
C294        C  0.34594757  0.05059433  0.16427303    -0.01900
C295        C  0.33242801  0.00464412  0.15275111     0.03100
C296        C  0.33027757  0.99688079  0.12112915    -0.04800
C297        C  0.34655067  0.03698756  0.10141974    -0.01900
C298        C  0.35742591  0.08213328  0.11288911     0.03100
C299        C  0.34680262  0.05813700  0.19670915     0.37800
C300        C  0.35420557  0.03298121  0.06951886     0.37700
C301        C  0.36847541  0.12145824  0.09222749     0.36200
C302        C  0.32437331  0.96662227  0.17361455     0.36200
N303        N  0.37653596  0.15237984  0.07559231    -0.38700
N304        N  0.31933380  0.93725660  0.19072671    -0.38700
N305        N  0.36214930  0.03053160  0.04430980    -0.38100
N306        N  0.34741786  0.06437110  0.22253316    -0.38100
C307        C  0.92491937  0.26809207  0.31483394    -0.04800
C308        C  0.95845723  0.25257049  0.31739431    -0.01900
C309        C  0.00675266  0.28326806  0.30881956     0.03100
C310        C  0.02210711  0.32974330  0.29676407    -0.04800
C311        C  0.98885539  0.34580922  0.29519637    -0.01900
C312        C  0.94083852  0.31549732  0.30452835     0.03100
C313        C  0.94367839  0.20508164  0.32939138     0.37800
C314        C  0.00386031  0.39386788  0.28426204     0.37700
C315        C  0.90772088  0.33320772  0.30278496     0.36200
C316        C  0.03989744  0.26568628  0.31164559     0.36200
N317        N  0.88165545  0.34774356  0.30162528    -0.38700
N318        N  0.06618848  0.25157279  0.31414752    -0.38700
N319        N  0.01544439  0.43210844  0.27557267    -0.38100
N320        N  0.93192384  0.16719863  0.33883708    -0.38100
C321        C  0.64113170  0.18870992  0.36534894    -0.04800
C322        C  0.61619302  0.15580172  0.38904646    -0.01900
C323        C  0.57932532  0.15758920  0.40474852     0.03100
C324        C  0.56676162  0.19237656  0.39719485    -0.04800
C325        C  0.59476221  0.22822771  0.37565916    -0.01900
C326        C  0.63158047  0.22631088  0.35975030     0.03100
C327        C  0.62960113  0.12102792  0.39829408     0.37800
C328        C  0.58404617  0.26563608  0.36843708     0.37700
C329        C  0.65853932  0.26260062  0.33708314     0.36200
C330        C  0.55517433  0.12421558  0.42943538     0.36200
N331        N  0.68014332  0.29208974  0.31929225    -0.38700
N332        N  0.53606887  0.09775101  0.44918740    -0.38700
N333        N  0.57543621  0.29534420  0.36245275    -0.38100
N334        N  0.64043823  0.09349239  0.40578000    -0.38100
C335        C  0.30752160  0.03632284  0.48032037    -0.04800
C336        C  0.30976502  0.99532732  0.47153064    -0.01900
C337        C  0.27602625  0.95394361  0.98610061     0.03100
C338        C  0.25511930  0.95234252  0.01408694    -0.04800
C339        C  0.25336922  0.99368688  0.02322557    -0.01900
C340        C  0.27923965  0.03744091  0.00679743     0.03100
C341        C  0.34948186  0.99907588  0.45447536     0.37800
C342        C  0.22672505  0.99220784  0.04979397     0.37700
C343        C  0.27742649  0.07966512  0.01567715     0.36200
C344        C  0.26505688  0.90979720  0.97064008     0.36200
N345        N  0.27593385  0.11339495  0.02267300    -0.38700
N346        N  0.25552271  0.87482053  0.95776620    -0.38700
N347        N  0.20546657  0.99122018  0.07099293    -0.38100
N348        N  0.38093634  0.99860622  0.44252793    -0.38100
C349        C  0.49459861  0.23515839  0.01540544    -0.04800
C350        C  0.49288648  0.20338176  0.03822923    -0.01900
C351        C  0.49176528  0.21387513  0.06931719     0.03100
C352        C  0.48969076  0.25519769  0.07835134    -0.04800
C353        C  0.49807495  0.28991837  0.05571132    -0.01900
C354        C  0.50209580  0.28065145  0.02484320     0.03100
C355        C  0.49112284  0.15892942  0.03014985     0.37800
C356        C  0.50149667  0.33524519  0.06350885     0.37700
C357        C  0.49927807  0.31407222  0.50426893     0.36200
C358        C  0.49188152  0.18093206  0.09168801     0.36200
N359        N  0.50562605  0.34399366  0.48721572    -0.38700
N360        N  0.49193825  0.15437524  0.10929869    -0.38700
N361        N  0.50403940  0.37139747  0.06939739    -0.38100
N362        N  0.48980037  0.12346558  0.02391570    -0.38100
C363        C  0.41267788  0.20539524  0.32858039    -0.04800
C364        C  0.44668190  0.20013701  0.31149026    -0.01900
C365        C  0.44640381  0.20194854  0.27957845     0.03100
C366        C  0.40833328  0.20231640  0.26402077    -0.04800
C367        C  0.37025263  0.19986324  0.28099937    -0.01900
C368        C  0.37329321  0.20349020  0.31289062     0.03100
C369        C  0.47793781  0.18620379  0.32609585     0.37800
C370        C  0.32718713  0.19295967  0.26603035     0.37700
C371        C  0.33469009  0.20393122  0.32912401     0.36200
C372        C  0.48431768  0.20093967  0.26282815     0.36200
N373        N  0.30332248  0.20365481  0.34170516    -0.38700
N374        N  0.51476318  0.20045584  0.24956798    -0.38700
N375        N  0.29183978  0.18612192  0.25482448    -0.38100
N376        N  0.50160497  0.17277975  0.33690051    -0.38100
C377        C  0.81571404  0.36539842  0.05001864    -0.04800
C378        C  0.78233588  0.37879272  0.05869192    -0.01900
C379        C  0.78320622  0.41884422  0.04505233     0.03100
C380        C  0.81747695  0.44556807  0.02245846    -0.04800
C381        C  0.84826620  0.42951807  0.01218108    -0.01900
C382        C  0.84740152  0.38965567  0.02595961     0.03100
C383        C  0.74721589  0.35143462  0.08178444     0.37800
C384        C  0.88143529  0.45296974  0.48644325     0.37700
C385        C  0.87910725  0.37349988  0.01524836     0.36200
C386        C  0.75006453  0.43345205  0.05529467     0.36200
N387        N  0.90356072  0.35874821  0.50502086    -0.38700
N388        N  0.72335747  0.44470997  0.06354780    -0.38700
N389        N  0.90767182  0.47246049  0.46671956    -0.38100
N390        N  0.71874109  0.32937416  0.09994075    -0.38100
C391        C  0.95817698  0.26186868  0.15896247    -0.04800
C392        C  0.98909662  0.24290533  0.15852446    -0.01900
C393        C  0.03191135  0.26485242  0.17638318     0.03100
C394        C  0.04600600  0.30852445  0.19176517    -0.04800
C395        C  0.01464838  0.32674431  0.19193797    -0.01900
C396        C  0.96886356  0.30002517  0.17912530     0.03100
C397        C  0.97848286  0.20298749  0.13869462     0.37800
C398        C  0.03023075  0.37512938  0.20269572     0.37700
C399        C  0.93412300  0.31442770  0.18573142     0.36200
C400        C  0.06327213  0.24515751  0.17681437     0.36200
N401        N  0.90852162  0.32777597  0.19273835    -0.38700
N402        N  0.08838376  0.22946599  0.17721029    -0.38700
N403        N  0.04221153  0.41409592  0.21007627    -0.38100
N404        N  0.97029724  0.17113204  0.12285184    -0.38100
C405        C  0.78856030  0.25624598  0.17882283    -0.04800
C406        C  0.76165751  0.27284116  0.19434749    -0.01900
C407        C  0.74864009  0.25995976  0.22521063     0.03100
C408        C  0.76505457  0.23303886  0.24126059    -0.04800
C409        C  0.79334187  0.21828106  0.22585989    -0.01900
C410        C  0.80175866  0.22662165  0.19466751     0.03100
C411        C  0.74882351  0.30440670  0.17908855     0.37800
C412        C  0.81588888  0.19572185  0.24199359     0.37700
C413        C  0.82148781  0.20140095  0.17897316     0.36200
C414        C  0.72018945  0.27614886  0.24066922     0.36200
N415        N  0.83560412  0.17838117  0.16834502    -0.38700
N416        N  0.69736722  0.28935083  0.25267036    -0.38700
N417        N  0.83565497  0.17858249  0.25364882    -0.38100
N418        N  0.73869678  0.33003934  0.16728494    -0.38100
C419        C  0.79907431  0.19860482  0.42913308    -0.04800
C420        C  0.77347300  0.21474667  0.44699320    -0.01900
C421        C  0.77443173  0.21279460  0.47898540     0.03100
C422        C  0.80013371  0.19399190  0.49382444    -0.04800
C423        C  0.82187992  0.17400801  0.47626963    -0.01900
C424        C  0.82299643  0.17773774  0.44443285     0.03100
C425        C  0.74646651  0.23447585  0.43303665     0.37800
C426        C  0.84247322  0.14836038  0.49106834     0.37700
C427        C  0.85038930  0.16089764  0.42810945     0.36200
C428        C  0.74942945  0.23127180  0.49638678     0.36200
N429        N  0.87300879  0.14796624  0.41553481    -0.38700
N430        N  0.71358191  0.22834484  0.01083709    -0.38700
N431        N  0.86632153  0.13591526  0.00330268    -0.38100
N432        N  0.72479609  0.25027583  0.42225000    -0.38100
C433        C  0.24801333  0.30205952  0.08381588    -0.04800
C434        C  0.23202551  0.25271198  0.07958522    -0.01900
C435        C  0.25788004  0.23268393  0.09318366     0.03100
C436        C  0.30257234  0.26357047  0.10756949    -0.04800
C437        C  0.31681670  0.31234295  0.11211462    -0.01900
C438        C  0.28522546  0.32828542  0.10498401     0.03100
C439        C  0.19063168  0.22358086  0.06043211     0.37800
C440        C  0.36620121  0.34840320  0.11959917     0.37700
C441        C  0.29636293  0.37540839  0.11557993     0.36200
C442        C  0.24090801  0.18180867  0.09018737     0.36200
N443        N  0.30721751  0.41287728  0.12534608    -0.38700
N444        N  0.22729792  0.14110657  0.08785634    -0.38700
N445        N  0.40572817  0.37811980  0.12426061    -0.38100
N446        N  0.15731565  0.20034476  0.04524355    -0.38100
C447        C  0.25660165  0.47564747  0.10120545    -0.04800
C448        C  0.27304112  0.51989488  0.11654386    -0.01900
C449        C  0.25983105  0.52014684  0.14729498     0.03100
C450        C  0.23355906  0.47628658  0.16342089    -0.04800
C451        C  0.21815259  0.43264130  0.14785338    -0.01900
C452        C  0.22531233  0.43252254  0.11661773     0.03100
C453        C  0.30386074  0.56475046  0.10098429     0.37800
C454        C  0.19726939  0.38705933  0.16374028     0.37700
C455        C  0.19669551  0.38765102  0.10026966     0.36200
C456        C  0.27472773  0.56530896  0.16254811     0.36200
N457        N  0.17068571  0.35119370  0.08873298    -0.38700
N458        N  0.28650865  0.60156499  0.17453339    -0.38700
N459        N  0.18171038  0.34964735  0.17494318    -0.38100
N460        N  0.32854186  0.60062355  0.08855225    -0.38100
C461        C  0.21131626  0.40646551  0.35070896    -0.04800
C462        C  0.19914224  0.36262901  0.36567477    -0.01900
C463        C  0.19667191  0.35949302  0.39756578     0.03100
C464        C  0.20879052  0.40060604  0.41557482    -0.04800
C465        C  0.22000085  0.44408053  0.40079942    -0.01900
C466        C  0.22080875  0.44691597  0.36884035     0.03100
C467        C  0.18936624  0.31994535  0.34873958     0.37800
C468        C  0.23146158  0.48683841  0.41820423     0.37700
C469        C  0.23141592  0.49224427  0.35516640     0.36200
C470        C  0.18030293  0.31288121  0.41158613     0.36200
N471        N  0.24006352  0.52869502  0.34472842    -0.38700
N472        N  0.16728520  0.27569502  0.42260542    -0.38700
N473        N  0.24030703  0.52106391  0.43178373    -0.38100
N474        N  0.18153521  0.28572498  0.33550879    -0.38100
C475        C  0.09418585  0.36772615  0.02933043    -0.04800
C476        C  0.08428251  0.38892640  0.05441682    -0.01900
C477        C  0.03633885  0.37324273  0.06273480     0.03100
C478        C  0.99747648  0.33811177  0.04538669    -0.04800
C479        C  0.00710047  0.32048863  0.01878905    -0.01900
C480        C  0.05488820  0.33465535  0.01091124     0.03100
C481        C  0.12276383  0.42652310  0.07242789     0.37800
C482        C  0.96746223  0.28766629  0.99937300     0.37700
C483        C  0.06320649  0.31573976  0.98333584     0.36200
C484        C  0.02697001  0.39084727  0.09055858     0.36200
N485        N  0.07083578  0.29895150  0.46192441    -0.38700
N486        N  0.01955838  0.40459122  0.11285945    -0.38700
N487        N  0.93607849  0.26204811  0.98353446    -0.38100
N488        N  0.15243446  0.45728620  0.08695889    -0.38100
C489        C  0.33593722  0.33595943  0.47518321    -0.04800
C490        C  0.34927253  0.30946001  0.49419966    -0.01900
C491        C  0.36126737  0.27674286  0.48183386     0.03100
C492        C  0.36446314  0.27349412  0.45019653    -0.04800
C493        C  0.35512526  0.30314272  0.43113803    -0.01900
C494        C  0.33900683  0.33276865  0.44355886     0.03100
C495        C  0.35178107  0.31660151  0.52660876     0.37800
C496        C  0.36060251  0.30214657  0.39868566     0.37700
C497        C  0.32409678  0.35877080  0.42384798     0.36200
C498        C  0.36988389  0.24612668  0.50177654     0.36200
N499        N  0.31187046  0.37930153  0.40816677    -0.38700
N500        N  0.37592147  0.22122811  0.51774168    -0.38700
N501        N  0.36543921  0.30204481  0.37277851    -0.38100
N502        N  0.36649651  0.33873074  0.05105745    -0.38100
C503        C  0.38577593  0.55056467  0.47744878    -0.04800
C504        C  0.38375819  0.59045710  0.46625137    -0.01900
C505        C  0.42226057  0.62688078  0.44938052     0.03100
C506        C  0.46427036  0.62444152  0.44355498    -0.04800
C507        C  0.46645961  0.58464815  0.45577019    -0.01900
C508        C  0.42774025  0.54841088  0.47257349     0.03100
C509        C  0.34292067  0.59558926  0.47356543     0.37800
C510        C  0.49507150  0.56980736  0.93661164     0.37700
C511        C  0.42358257  0.50234236  0.97484398     0.36200
C512        C  0.41803633  0.66716180  0.43879964     0.36200
N513        N  0.42726355  0.46957983  0.98116007    -0.38700
N514        N  0.41431419  0.69914902  0.43053954    -0.38700
N515        N  0.52322568  0.56118033  0.92739359    -0.38100
N516        N  0.31066331  0.60001625  0.47960843    -0.38100
C517        C  0.65714127  0.91729224  0.39131633    -0.04800
C518        C  0.62422658  0.93043659  0.37999219    -0.01900
C519        C  0.64065369  0.97799290  0.36973333     0.03100
C520        C  0.69023882  0.01310562  0.37032154    -0.04800
C521        C  0.72306213  0.99970641  0.38147070    -0.01900
C522        C  0.70655011  0.95295366  0.39274903     0.03100
C523        C  0.57327649  0.89502880  0.37823168     0.37800
C524        C  0.77461909  0.03267697  0.37951772     0.37700
C525        C  0.74096864  0.94230909  0.40656272     0.36200
C526        C  0.60621956  0.99056384  0.35857000     0.36200
N527        N  0.76843762  0.93398889  0.41763379    -0.38700
N528        N  0.57864815  0.00041818  0.34961344    -0.38700
N529        N  0.81575055  0.05834596  0.37767391    -0.38100
N530        N  0.53252710  0.86708202  0.37694747    -0.38100
C531        C  0.68831736  0.69138843  0.45905549    -0.04800
C532        C  0.69854510  0.69696436  0.49062782    -0.01900
C533        C  0.72763624  0.68045561  0.50381071     0.03100
C534        C  0.74919228  0.66125973  0.48536498    -0.04800
C535        C  0.74142948  0.65842905  0.45395902    -0.01900
C536        C  0.70796722  0.66898093  0.44126275     0.03100
C537        C  0.67707471  0.71839924  0.00856603     0.37800
C538        C  0.77058961  0.64788450  0.43432631     0.37700
C539        C  0.69515655  0.65724060  0.40958510     0.36200
C540        C  0.73641864  0.68599735  0.03502372     0.36200
N541        N  0.68470265  0.64754164  0.38439390    -0.38700
N542        N  0.74476340  0.69096693  0.06071808    -0.38700
N543        N  0.79492871  0.64096257  0.41871001    -0.38100
N544        N  0.66185695  0.73636930  0.02393069    -0.38100
C545        C  0.38175258  0.82909294  0.11451273    -0.04800
C546        C  0.41014543  0.86367343  0.13688977    -0.01900
C547        C  0.44774378  0.86160789  0.15181180     0.03100
C548        C  0.45912653  0.82619474  0.14373365    -0.04800
C549        C  0.43071643  0.79150158  0.12138740    -0.01900
C550        C  0.39194405  0.79253797  0.10722787     0.03100
C551        C  0.40078889  0.90158920  0.14504749     0.37800
C552        C  0.44226758  0.75564673  0.11176256     0.37700
C553        C  0.36388294  0.75682495  0.08418483     0.36200
C554        C  0.47371163  0.89542278  0.17621411     0.36200
N555        N  0.34145552  0.72821126  0.06591160    -0.38700
N556        N  0.49426478  0.92236349  0.19566796    -0.38700
N557        N  0.45114568  0.72693158  0.10386043    -0.38100
N558        N  0.39424146  0.93247037  0.15143505    -0.38100
C559        C  0.69823226  0.95142109  0.23724720    -0.04800
C560        C  0.74867340  0.98209980  0.24061782    -0.01900
C561        C  0.76800646  0.02690940  0.25610034     0.03100
C562        C  0.73723414  0.04223560  0.26730537    -0.04800
C563        C  0.68701444  0.01223013  0.26321465    -0.01900
C564        C  0.66762924  0.96692188  0.24926690     0.03100
C565        C  0.78073344  0.96738023  0.22863120     0.37800
C566        C  0.65421987  0.02766921  0.27322282     0.44900
C567        C  0.61548619  0.93757219  0.24671843     0.36200
C568        C  0.81957022  0.05830672  0.25925366     0.36200
N569        N  0.57395655  0.91484353  0.24514433    -0.38700
N570        N  0.86075140  0.08361881  0.26162290    -0.38700
N571        N  0.62755242  0.03947546  0.28065281    -0.38100
N572        N  0.80643344  0.95571207  0.21907279    -0.38100
C573        C  0.53424693  0.76022807  0.25690299    -0.04800
C574        C  0.56114054  0.73983082  0.26784518    -0.01900
C575        C  0.55693793  0.72427633  0.29799704     0.03100
C576        C  0.53350814  0.73741615  0.31943044    -0.04800
C577        C  0.50592694  0.75726528  0.30888408    -0.01900
C578        C  0.50496430  0.76708181  0.27763452     0.03100
C579        C  0.59980572  0.74231863  0.25026327     0.37800
C580        C  0.47690343  0.76569053  0.32998316     0.37700
C581        C  0.47448019  0.78503760  0.26713543     0.36200
C582        C  0.57863424  0.69617913  0.30668916     0.36200
N583        N  0.45009635  0.79933283  0.25880500    -0.38700
N584        N  0.59522030  0.67288459  0.31290264    -0.38700
N585        N  0.45330242  0.77198030  0.34671152    -0.38100
N586        N  0.63299780  0.74618516  0.23804765    -0.38100
C587        C  0.59806777  0.80360374  0.06977472    -0.04800
C588        C  0.57143181  0.75788048  0.05588100    -0.01900
C589        C  0.56877245  0.75380292  0.02403043     0.03100
C590        C  0.59300120  0.79555341  0.00579932    -0.04800
C591        C  0.61926549  0.84129210  0.01981593    -0.01900
C592        C  0.62174625  0.84530136  0.05160110     0.03100
C593        C  0.54881950  0.71473428  0.07442571     0.37800
C594        C  0.64359467  0.88466879  0.00152097     0.37700
C595        C  0.64809614  0.89287496  0.06513827     0.36200
C596        C  0.54383038  0.70624810  0.01036037     0.36200
N597        N  0.66958776  0.93186904  0.07440751    -0.38700
N598        N  0.52814673  0.67149228  0.50111143    -0.38700
N599        N  0.66319632  0.91917769  0.98694383    -0.38100
N600        N  0.53110417  0.68040123  0.08924796    -0.38100
C601        C  0.68569794  0.99537349  0.13937655    -0.04800
C602        C  0.66438668  0.02253983  0.13143996    -0.01900
C603        C  0.69311342  0.07009373  0.12038009     0.03100
C604        C  0.74377481  0.09130042  0.11791855    -0.04800
C605        C  0.76494184  0.06420833  0.12692341    -0.01900
C606        C  0.73603655  0.01636012  0.13693253     0.03100
C607        C  0.61262179  0.00070101  0.13327505     0.37800
C608        C  0.81679025  0.08573887  0.12695260     0.37700
C609        C  0.75856615  0.98873508  0.14479511     0.36200
C610        C  0.66991849  0.09612200  0.11037481     0.36200
N611        N  0.77683431  0.96687677  0.15063553    -0.38700
N612        N  0.65133627  0.11678560  0.10234670    -0.38700
N613        N  0.85808467  0.10262031  0.12723025    -0.38100
N614        N  0.57130915  0.98323146  0.13460866    -0.38100
C615        C  0.62895968  0.45597231  0.23069180    -0.04800
C616        C  0.58106350  0.44056916  0.23859182    -0.01900
C617        C  0.54250639  0.40030606  0.22404223     0.03100
C618        C  0.55128630  0.37625506  0.20037818    -0.04800
C619        C  0.59931950  0.39054453  0.19332083    -0.01900
C620        C  0.63789853  0.42930446  0.20899708     0.03100
C621        C  0.57144098  0.46474448  0.26281191     0.37800
C622        C  0.60945223  0.36665785  0.16917598     0.37700
C623        C  0.68671363  0.44161500  0.20236686     0.36200
C624        C  0.49393063  0.38207033  0.23476715     0.36200
N625        N  0.72522437  0.45011503  0.19702332    -0.38700
N626        N  0.45536516  0.36721649  0.24371282    -0.38700
N627        N  0.61770756  0.34780611  0.14989279    -0.38100
N628        N  0.56384117  0.48390360  0.28222058    -0.38100
C629        C  0.79440671  0.58049201  0.16160284    -0.04800
C630        C  0.75643243  0.57815763  0.14431364    -0.01900
C631        C  0.75974289  0.58104404  0.11262585     0.03100
C632        C  0.79925592  0.58271806  0.09837993    -0.04800
C633        C  0.83301273  0.57710658  0.11551760    -0.01900
C634        C  0.83207297  0.57858933  0.14728769     0.03100
C635        C  0.71377732  0.57212964  0.15900888     0.37800
C636        C  0.86763411  0.56848496  0.10049365     0.37700
C637        C  0.86939723  0.57784846  0.16523244     0.36200
C638        C  0.72195841  0.58082016  0.09464261     0.36200
N639        N  0.89918374  0.57742424  0.17963871    -0.38700
N640        N  0.69158791  0.58022557  0.08031804    -0.38700
N641        N  0.89483030  0.56093140  0.08856880    -0.38100
N642        N  0.67913679  0.56622977  0.17044413    -0.38100
C643        C  0.74376595  0.52976500  0.34832178    -0.04800
C644        C  0.71633080  0.53521879  0.37105803    -0.01900
C645        C  0.72605792  0.53200750  0.40198613     0.03100
C646        C  0.76540414  0.52631076  0.41057390    -0.04800
C647        C  0.78585411  0.51150447  0.38783541    -0.01900
C648        C  0.77363623  0.51161018  0.35707989     0.03100
C649        C  0.67739219  0.54313969  0.36297389     0.37800
C650        C  0.81848530  0.49478991  0.39568232     0.37700
C651        C  0.78837468  0.48896979  0.33476220     0.36200
C652        C  0.69491214  0.53427206  0.42457956     0.36200
N653        N  0.79866433  0.46924911  0.31725701    -0.38700
N654        N  0.66980499  0.53598000  0.44240469    -0.38700
N655        N  0.84438427  0.48120589  0.40175235    -0.38100
N656        N  0.64577850  0.54859656  0.35651425    -0.38100
C657        C  0.72591946  0.76555555  0.34935576    -0.04800
C658        C  0.72215035  0.76905740  0.31786904    -0.01900
C659        C  0.74358270  0.75108032  0.29824378     0.03100
C660        C  0.76712843  0.72788890  0.31027214    -0.04800
C661        C  0.77906056  0.73366866  0.34129774    -0.01900
C662        C  0.76013535  0.75450290  0.36072066     0.03100
C663        C  0.69781839  0.79294285  0.30606758     0.37800
C664        C  0.81077973  0.71813424  0.35298058     0.37700
C665        C  0.77526345  0.76365225  0.39214965     0.36200
C666        C  0.74119507  0.75666513  0.26600222     0.36200
N667        N  0.78816236  0.77171680  0.41709058    -0.38700
N668        N  0.74007886  0.76360103  0.24044529    -0.38700
N669        N  0.83675843  0.70630083  0.36201062    -0.38100
N670        N  0.67926273  0.81314483  0.29712990    -0.38100
C671        C  0.69542985  0.67411520  0.19794604    -0.04800
C672        C  0.72509252  0.71579334  0.18035208    -0.01900
C673        C  0.70659731  0.74400432  0.16890268     0.03100
C674        C  0.65830323  0.73027536  0.17413980    -0.04800
C675        C  0.62681812  0.68407884  0.18642237    -0.01900
C676        C  0.64547822  0.65653600  0.19873783     0.03100
C677        C  0.77555212  0.73225968  0.17583934     0.37800
C678        C  0.57567919  0.66615573  0.18856044     0.37700
C679        C  0.61312071  0.61013751  0.21238070     0.36200
C680        C  0.73728034  0.78718731  0.15157774     0.36200
N681        N  0.58727824  0.57307388  0.22317726    -0.38700
N682        N  0.76161643  0.82140378  0.13755840    -0.38700
N683        N  0.53488623  0.65174548  0.19035641    -0.38100
N684        N  0.81579654  0.74552086  0.17212214    -0.38100
C685        C  0.18833769  0.55308225  0.28839440    -0.04800
C686        C  0.15328840  0.54370852  0.31073713    -0.01900
C687        C  0.15060331  0.58189095  0.32429234     0.03100
C688        C  0.18356435  0.63021490  0.31634604    -0.04800
C689        C  0.22152698  0.63980853  0.29631480    -0.01900
C690        C  0.22356676  0.60153880  0.28221369     0.03100
C691        C  0.12137257  0.49479702  0.32117169     0.37800
C692        C  0.25776595  0.68912832  0.28906224     0.37700
C693        C  0.26147284  0.61248102  0.26076232     0.36200
C694        C  0.11519342  0.57136998  0.34760059     0.36200
N695        N  0.29204606  0.62149016  0.24384929    -0.38700
N696        N  0.08718898  0.56298952  0.36632905    -0.38700
N697        N  0.28677192  0.72833509  0.28311862    -0.38100
N698        N  0.09629269  0.45596865  0.32984307    -0.38100
C699        C  0.04346513  0.75503676  0.40048121    -0.04800
C700        C  0.04860754  0.76558125  0.43163399    -0.01900
C701        C  0.00751454  0.74573787  0.45043568     0.03100
C702        C  0.96160628  0.71105209  0.43849061    -0.04800
C703        C  0.95641073  0.70537068  0.40669516    -0.01900
C704        C  0.99672920  0.73079253  0.38795069     0.03100
C705        C  0.09596744  0.79901546  0.44371232     0.37800
C706        C  0.91036095  0.67163052  0.39287974     0.37700
C707        C  0.98922990  0.73493917  0.35618022     0.36200
C708        C  0.01329169  0.75981071  0.48200869     0.36200
N709        N  0.98089257  0.73998317  0.33147152    -0.38700
N710        N  0.01797673  0.77164507  0.50711735    -0.38700
N711        N  0.87435769  0.64372986  0.38153652    -0.38100
N712        N  0.13384148  0.82670218  0.45288813    -0.38100
C713        C  0.27151204  0.92471480  0.35843147    -0.04800
C714        C  0.25287787  0.95521217  0.36466518    -0.01900
C715        C  0.28340791  0.00291653  0.37492279     0.03100
C716        C  0.33366140  0.02245128  0.37741654    -0.04800
C717        C  0.35306462  0.99388347  0.36899133    -0.01900
C718        C  0.32246169  0.94534570  0.35979112     0.03100
C719        C  0.20234532  0.93872096  0.35975981     0.37800
C720        C  0.40487018  0.01486349  0.36939947     0.37700
C721        C  0.34439523  0.91745909  0.35166289     0.36200
C722        C  0.26219738  0.03102656  0.38437104     0.36200
N723        N  0.36240024  0.89577279  0.34493075    -0.38700
N724        N  0.24506676  0.05314094  0.39198686    -0.38700
N725        N  0.44619028  0.03180105  0.36966102    -0.38100
N726        N  0.16221974  0.92603111  0.35567143    -0.38100
C727        C  0.02081484  0.69065447  0.28957256    -0.04800
C728        C  0.00853671  0.72122156  0.27358897    -0.01900
C729        C  0.96063653  0.70359419  0.26395110     0.03100
C730        C  0.92470901  0.65510491  0.26935000    -0.04800
C731        C  0.93910910  0.62306099  0.28043193    -0.01900
C732        C  0.98654423  0.64089920  0.29105618     0.03100
C733        C  0.04343505  0.77213586  0.26959786     0.37800
C734        C  0.90587344  0.57148704  0.28054458     0.37700
C735        C  0.00015723  0.60769866  0.30319099     0.36200
C736        C  0.94868864  0.73564804  0.24817673     0.36200
N737        N  0.01097983  0.58119644  0.31282062    -0.38700
N738        N  0.93931974  0.76125497  0.23554932    -0.38700
N739        N  0.88026458  0.53015266  0.27984795    -0.38100
N740        N  0.07099353  0.81279299  0.26656215    -0.38100
C741        C  0.22979800  0.74468955  0.43188836    -0.04800
C742        C  0.27719308  0.78029172  0.44062457    -0.01900
C743        C  0.28982229  0.79059095  0.47156621     0.03100
C744        C  0.25602783  0.76344059  0.49444267    -0.04800
C745        C  0.21343310  0.72050418  0.48539330    -0.01900
C746        C  0.19968707  0.71192414  0.45444722     0.03100
C747        C  0.31378603  0.80604317  0.41793082     0.37800
C748        C  0.19369834  0.68856156  0.00692093     0.37700
C749        C  0.15405550  0.66953841  0.44638178     0.36200
C750        C  0.33751538  0.83018505  0.47929069     0.36200
N751        N  0.11773892  0.63550593  0.44012969    -0.38700
N752        N  0.37551898  0.86200739  0.48519753    -0.38700
N753        N  0.17169154  0.65872058  0.02445308    -0.38100
N754        N  0.34333550  0.82625519  0.40001216    -0.38100
C755        C  0.20991287  0.79930849  0.24512759    -0.04800
C756        C  0.20063626  0.75821550  0.22802287    -0.01900
C757        C  0.20362149  0.76046148  0.19613322     0.03100
C758        C  0.21005591  0.80166347  0.18072995    -0.04800
C759        C  0.21245980  0.84001511  0.19767319    -0.01900
C760        C  0.21600529  0.84042877  0.22948856     0.03100
C761        C  0.18266602  0.71190628  0.24257251     0.37800
C762        C  0.21011657  0.87886915  0.18275508     0.37700
C763        C  0.22639031  0.88379288  0.24580014     0.36200
C764        C  0.19637156  0.71878671  0.17911698     0.36200
N765        N  0.23479582  0.91846803  0.25868599    -0.38700
N766        N  0.19052693  0.68553157  0.16557160    -0.38700
N767        N  0.20733634  0.90964104  0.17132296    -0.38100
N768        N  0.16653479  0.67418057  0.25342615    -0.38100
O769        O  0.21962746  0.71399287  0.83652654    -0.84800
O770        O  0.22168841  0.77625742  0.79276115    -0.81800
C771        C  0.20851560  0.80110775  0.77800467     0.98700
O772        O  0.19316960  0.82444086  0.79220182    -0.81900
O773        O  0.10278430  0.74838264  0.79807822    -0.84500
C774        C  0.06747253  0.70962383  0.80722197     1.03200
O775        O  0.07003943  0.69209481  0.83250028    -0.77300
O776        O  0.14189673  0.66930472  0.83085727    -0.77500
C777        C  0.18318568  0.67474466  0.82832193     1.03200
O778        O  0.23780981  0.78453168  0.88185093    -0.84800
O779        O  0.25301627  0.85143807  0.83814691    -0.81800
C780        C  0.23543216  0.87434873  0.85043245     0.98700
O781        O  0.19031694  0.85356143  0.85323599    -0.81900
O782        O  0.09302931  0.78053175  0.85628222    -0.84500
C783        C  0.08503915  0.76003774  0.88178052     1.03200
O784        O  0.10776108  0.73960604  0.88974383    -0.77300
O785        O  0.17631224  0.71260276  0.89061355    -0.77400
C786        C  0.21537272  0.74933568  0.89960593     1.03100
Cr787      Cr  0.22854678  0.78030484  0.83753858     1.93700
Cr788      Cr  0.14657858  0.79920152  0.82636909     1.93200
Cr789      Cr  0.12719246  0.70736614  0.85953166     1.39100
O790        O  0.16725213  0.76221633  0.84145870    -1.22500
O791        O  0.70439482  0.49338596  0.75555463    -0.84800
O792        O  0.76696227  0.54584789  0.71065797    -0.81800
C793        C  0.79404266  0.58168950  0.69462935     0.98700
O794        O  0.82091575  0.62280064  0.70650303    -0.81900
O795        O  0.75450495  0.64973525  0.71117134    -0.84500
C796        C  0.71617804  0.64758278  0.71895258     1.03200
O797        O  0.69725201  0.62894961  0.74426285    -0.77300
O798        O  0.66687582  0.53188956  0.74556802    -0.77500
C799        C  0.66835267  0.49368426  0.74477048     1.03200
O800        O  0.77835717  0.54771262  0.79939126    -0.84800
O801        O  0.84501879  0.58986153  0.75336264    -0.81800
C802        C  0.87192730  0.63197389  0.76364071     0.98700
O803        O  0.85489223  0.65921260  0.76712475    -0.81900
O804        O  0.78975657  0.69337311  0.76882462    -0.84500
C805        C  0.76724447  0.68347246  0.79364956     1.03200
O806        O  0.74267174  0.64029511  0.80232073    -0.77300
O807        O  0.70876115  0.54258859  0.80609398    -0.77400
C808        C  0.74359242  0.53883344  0.81642430     1.03100
Cr809      Cr  0.77295100  0.54793776  0.75493588     1.93700
Cr810      Cr  0.80233168  0.65210792  0.74001716     1.93200
Cr811      Cr  0.70771160  0.58629812  0.77330207     1.39100
O812        O  0.76099504  0.59581791  0.75631702    -1.22500
O813        O  0.50561812  0.79077545  0.65989124    -0.84800
O814        O  0.56881789  0.79586649  0.61693215    -0.81800
C815        C  0.60814913  0.81090048  0.60345422     0.98700
O816        O  0.64736445  0.82620390  0.61806862    -0.81900
O817        O  0.66800231  0.91468096  0.63670591    -0.84500
C818        C  0.66340406  0.94639055  0.65001775     1.03200
O819        O  0.63853513  0.93647263  0.67382958    -0.77300
O820        O  0.54403639  0.86930364  0.66150055    -0.77500
C821        C  0.50706980  0.83002297  0.65417504     1.03200
O822        O  0.55227710  0.75860763  0.70285615    -0.84800
O823        O  0.60470211  0.75130439  0.65648594    -0.81800
C824        C  0.64425877  0.76458450  0.66987215     0.98700
O825        O  0.67028412  0.80794038  0.67849150    -0.81900
O826        O  0.69752514  0.90515464  0.69512006    -0.84500
C827        C  0.67810272  0.90686183  0.71957962     1.03200
O828        O  0.63498460  0.87571700  0.72368340    -0.77300
O829        O  0.53966164  0.81620113  0.71596332    -0.77400
C830        C  0.54195835  0.77941178  0.72302229     1.03100
Cr831      Cr  0.56081021  0.77821299  0.65981138     1.93700
Cr832      Cr  0.66635010  0.86094182  0.65829662     1.93200
Cr833      Cr  0.59022942  0.87218180  0.69220082     1.39100
O834        O  0.60591197  0.83753912  0.66966031    -1.22500
O835        O  0.50211945  0.69849199  0.91300146    -0.84800
O836        O  0.55761072  0.76401254  0.95726303    -0.81800
C837        C  0.59505367  0.79146329  0.97242566     0.98700
O838        O  0.63511087  0.81634312  0.95935390    -0.81900
O839        O  0.66195121  0.74879055  0.95236401    -0.84500
C840        C  0.65921773  0.71077345  0.94250925     1.03200
O841        O  0.63757796  0.69271105  0.91778407    -0.77300
O842        O  0.54232189  0.66289221  0.92165275    -0.77500
C843        C  0.50414154  0.66378621  0.92455206     1.03200
O844        O  0.55142940  0.77143223  0.86783522    -0.84800
O845        O  0.59740557  0.84011039  0.91277552    -0.81800
C846        C  0.63858934  0.86625307  0.90137410     0.98700
O847        O  0.66634505  0.84976251  0.89853386    -0.81900
O848        O  0.69961094  0.78522192  0.89407876    -0.84500
C849        C  0.68779691  0.76354459  0.86887601     1.03200
O850        O  0.64395069  0.73821094  0.86145045    -0.77300
O851        O  0.54535892  0.70124272  0.86123024    -0.77400
C852        C  0.54308674  0.73662265  0.85070539     1.03100
Cr853      Cr  0.55573916  0.76773600  0.91250819     1.93700
Cr854      Cr  0.66115936  0.79719470  0.92474290     1.93200
Cr855      Cr  0.59265569  0.70253733  0.89178062     1.39100
O856        O  0.60359638  0.75599235  0.90950296    -1.22500
O857        O  0.30086260  0.49744724  0.98359823    -0.84800
O858        O  0.20996327  0.43107305  0.96613779    -0.81800
C859        C  0.21280873  0.40120202  0.94898180     0.98700
O860        O  0.21990624  0.36938379  0.96001654    -0.81900
O861        O  0.26689153  0.33509536  0.99310535    -0.84500
C862        C  0.31103688  0.36236574  0.98707183     1.03200
O863        O  0.33282770  0.40638377  0.99460534    -0.77300
O864        O  0.34946705  0.49484074  0.01672730    -0.77500
C865        C  0.34287783  0.51269095  0.99317516     1.03200
O866        O  0.26988032  0.49039915  0.54683216    -0.84800
O867        O  0.18071843  0.42221209  0.52850625    -0.81800
C868        C  0.14632207  0.38103792  0.52188244     0.98700
O869        O  0.15462352  0.35101230  0.50883469    -0.81900
O870        O  0.20882569  0.32305907  0.54534283    -0.84500
C871        C  0.24593404  0.32882375  0.55898362     1.03200
O872        O  0.28719676  0.36108033  0.55062850    -0.77300
O873        O  0.29119660  0.44301434  0.56865149    -0.77400
C874        C  0.27542037  0.47141955  0.57057768     1.03100
Cr875      Cr  0.24094129  0.45701676  0.00677282     1.93700
Cr876      Cr  0.21521161  0.35017717  0.00262191     1.93200
Cr877      Cr  0.31134524  0.42454635  0.53162042     1.39100
O878        O  0.25528500  0.41119340  0.01344060    -1.22500
O879        O  0.79543275  0.28421761  0.55933132    -0.84800
O880        O  0.77794094  0.19520941  0.54557664    -0.81800
C881        C  0.81020155  0.20093966  0.52705091     0.98700
O882        O  0.85207756  0.21375309  0.53618762    -0.81900
O883        O  0.93643136  0.27034257  0.56572529    -0.84500
C884        C  0.95075071  0.31335863  0.55829280     1.03200
O885        O  0.92714850  0.33326302  0.56580331    -0.77300
O886        O  0.84990254  0.34068016  0.58833831    -0.77500
C887        C  0.82054401  0.32779340  0.56654740     1.03200
O888        O  0.77939784  0.25886115  0.62426331    -0.84800
O889        O  0.76704305  0.17223664  0.60981882    -0.81800
C890        C  0.77829037  0.14127412  0.60402516     0.98700
O891        O  0.81434123  0.15199770  0.58777512    -0.81900
O892        O  0.89833356  0.21749977  0.62024457    -0.84500
C893        C  0.92835410  0.25756563  0.63224525     1.03200
O894        O  0.93383055  0.29613632  0.62152943    -0.77300
O895        O  0.85256953  0.29073619  0.64220204    -0.77400
C896        C  0.80796789  0.27038308  0.64667505     1.03100
Cr897      Cr  0.78520276  0.22964915  0.58502379     1.93700
Cr898      Cr  0.87283497  0.21585337  0.57837974     1.93200
Cr899      Cr  0.88712737  0.31074356  0.60324024     1.39100
O900        O  0.84825877  0.25203661  0.58867028    -1.22500
O901        O  0.52178015  0.22483950  0.91828032    -0.84800
O902        O  0.45660024  0.22422186  0.87646324    -0.81800
C903        C  0.41622460  0.20947629  0.86383809     0.98700
O904        O  0.38027342  0.19940029  0.88027117    -0.81900
O905        O  0.35428015  0.10606428  0.88595819    -0.84500
C906        C  0.36117301  0.07240769  0.89309888     1.03200
O907        O  0.39019347  0.07760781  0.91424630    -0.77300
O908        O  0.48419266  0.14775926  0.91062057    -0.77500
C909        C  0.52197813  0.18805087  0.90890463     1.03200
O910        O  0.47276669  0.24379288  0.96483690    -0.84800
O911        O  0.42042475  0.26087051  0.92267070    -0.81800
C912        C  0.38330460  0.24514952  0.93884994     0.98700
O913        O  0.35811148  0.20058895  0.94419960    -0.81900
O914        O  0.32676613  0.10112431  0.94632672    -0.84500
C915        C  0.34260675  0.08741804  0.96797520     1.03200
O916        O  0.38680517  0.10917953  0.97398638    -0.77300
O917        O  0.48139167  0.18143677  0.97264114    -0.77400
C918        C  0.48307361  0.21951761  0.98250812     1.03100
Cr919      Cr  0.46464979  0.23406910  0.92080093     1.93700
Cr920      Cr  0.35938067  0.15395146  0.91542362     1.93200
Cr921      Cr  0.43510507  0.13242346  0.94163088     1.39100
O922        O  0.41932014  0.17279634  0.92622915    -1.22500
O923        O  0.71606899  0.22017717  0.83811668    -0.84800
O924        O  0.77551553  0.21754288  0.88187872    -0.81800
C925        C  0.79925584  0.20237411  0.89597569     0.98700
O926        O  0.82347389  0.18909936  0.88069959    -0.81900
O927        O  0.74855021  0.09853385  0.87035935    -0.84500
C928        C  0.71103512  0.06377573  0.85908084     1.03200
O929        O  0.69393052  0.07011530  0.83464126    -0.77300
O930        O  0.67168873  0.14204756  0.84057474    -0.77500
C931        C  0.67803744  0.18298508  0.84678912     1.03200
O932        O  0.79004131  0.24360932  0.79350671    -0.84800
O933        O  0.85321697  0.25399740  0.83872945    -0.81800
C934        C  0.87578897  0.23748356  0.82483911     0.98700
O935        O  0.85538578  0.19276505  0.81942346    -0.81900
O936        O  0.78159346  0.09457700  0.81167706    -0.84500
C937        C  0.75920093  0.08822894  0.78685362     1.03200
O938        O  0.74429975  0.11608481  0.77990637    -0.77300
O939        O  0.71773082  0.18367306  0.78207319    -0.77400
C940        C  0.75712109  0.22072824  0.77414499     1.03100
Cr941      Cr  0.78237426  0.22967581  0.83756887     1.93700
Cr942      Cr  0.80024200  0.14587301  0.84424114     1.93200
Cr943      Cr  0.71033007  0.13085564  0.81077633     1.39100
O944        O  0.76417897  0.16857583  0.83069992    -1.22500
O945        O  0.30468853  0.79205867  0.59147575    -0.84800
O946        O  0.24230113  0.79326584  0.63310819    -0.81800
C947        C  0.21567217  0.80576650  0.64599443     0.98700
O948        O  0.19233169  0.81988080  0.63031265    -0.81900
O949        O  0.26640448  0.91123921  0.61728728    -0.84500
C950        C  0.30422496  0.94433595  0.60529011     1.03200
O951        O  0.31894755  0.93700101  0.58051586    -0.77300
O952        O  0.34672731  0.87066710  0.58952938    -0.77500
C953        C  0.34350871  0.83135658  0.59669178     1.03200
O954        O  0.22956579  0.76111166  0.54573260    -0.84800
O955        O  0.16509145  0.75140223  0.58898908    -0.81800
C956        C  0.14173617  0.76616042  0.57392078     0.98700
O957        O  0.15981839  0.81038873  0.56831778    -0.81900
O958        O  0.22873113  0.90675583  0.55846433    -0.84500
C959        C  0.24638483  0.90897834  0.53272012     1.03200
O960        O  0.26579482  0.88434321  0.52775913    -0.77300
O961        O  0.29954270  0.82210029  0.53380267    -0.77400
C962        C  0.26236988  0.78258928  0.52645673     1.03100
Cr963      Cr  0.23662846  0.77870660  0.58925132     1.93700
Cr964      Cr  0.21427436  0.86000807  0.59260642     1.93200
Cr965      Cr  0.30393899  0.87566106  0.55946590     1.39100
O966        O  0.25193028  0.83836930  0.58058534    -1.22500
O967        O  0.22752840  0.51559899  0.76218617    -0.84800
O968        O  0.22697144  0.45144210  0.80291333    -0.81800
C969        C  0.21227325  0.41194790  0.81636716     0.98700
O970        O  0.19727347  0.37423386  0.80052431    -0.81900
O971        O  0.10710840  0.35933966  0.79363675    -0.84500
C972        C  0.07249221  0.36227010  0.78318238     1.03200
O973        O  0.07790868  0.38579930  0.75901034    -0.77300
O974        O  0.14941721  0.48042404  0.76446502    -0.77500
C975        C  0.19027238  0.51566442  0.77085719     1.03200
O976        O  0.24800481  0.46591185  0.71455476    -0.84800
O977        O  0.25858670  0.40978096  0.75665399    -0.81800
C978        C  0.23918117  0.36970357  0.74268238     0.98700
O979        O  0.19439242  0.34666203  0.73826375    -0.81900
O980        O  0.09842405  0.32244169  0.73406695    -0.84500
C981        C  0.09241785  0.33845649  0.70931692     1.03200
O982        O  0.11974302  0.38193190  0.70257376    -0.77300
O983        O  0.18788993  0.47732936  0.70495772    -0.77400
C984        C  0.22438614  0.47572927  0.69608612     1.03100
Cr985      Cr  0.23620951  0.45794660  0.75863775     1.93700
Cr986      Cr  0.15145812  0.35496527  0.76547883     1.93200
Cr987      Cr  0.13666190  0.43081355  0.73409810     1.39100
O988        O  0.17462118  0.41466175  0.75263938    -1.22500
O989        O  0.78647748  0.49325501  0.50244048    -0.84800
O990        O  0.78981334  0.54982298  0.54889768    -0.81800
C991        C  0.80482211  0.58628062  0.56547110     0.98700
O992        O  0.82490053  0.62836181  0.55428605    -0.81900
O993        O  0.91453274  0.64375641  0.54156180    -0.84500
C994        C  0.94728099  0.64056344  0.52857487     1.03200
O995        O  0.93873898  0.61995540  0.50295295    -0.77300
O996        O  0.86433692  0.52596135  0.50585870    -0.77500
C997        C  0.82281582  0.49009453  0.50929631     1.03200
O998        O  0.76906492  0.55242081  0.96204373    -0.84800
O999        O  0.75938938  0.60212797  0.00936745    -0.81800
C1000       C  0.77862183  0.64343332  0.99731615     0.98700
O1001       O  0.82428895  0.66745327  0.49504993    -0.81900
O1002       O  0.91798500  0.69022003  0.98575954    -0.84500
C1003       C  0.92310638  0.67726856  0.95966062     1.03200
O1004       O  0.89737780  0.63386614  0.95161215    -0.77300
O1005       O  0.82621305  0.53825427  0.95062655    -0.77400
C1006       C  0.78835583  0.53863790  0.94305323     1.03100
Cr1007     Cr  0.78037993  0.55228354  0.50536612     1.93700
Cr1008     Cr  0.86796581  0.65275428  0.51775376     1.93200
Cr1009     Cr  0.87905325  0.58117046  0.98053404     1.39100
O1010       O  0.84226757  0.59519825  0.50052428    -1.22500
O1011       O  0.50605313  0.29289714  0.67680582    -0.84800
O1012       O  0.44360337  0.22827898  0.71851301    -0.81800
C1013       C  0.40477524  0.20054114  0.73198665     0.98700
O1014       O  0.36623805  0.17599982  0.71683360    -0.81900
O1015       O  0.34518451  0.24749443  0.70849773    -0.84500
C1016       C  0.35051016  0.28646613  0.69842465     1.03200
O1017       O  0.37500592  0.30530613  0.67491884    -0.77300
O1018       O  0.46923754  0.33325664  0.68036925    -0.77500
C1019       C  0.50557085  0.32986370  0.68560551     1.03200
O1020       O  0.45750316  0.22077525  0.63017717    -0.84800
O1021       O  0.40514837  0.15337300  0.67346348    -0.81800
C1022       C  0.36695936  0.13072794  0.65798595     0.98700
O1023       O  0.34043776  0.14829850  0.65377018    -0.81900
O1024       O  0.31157869  0.21669211  0.64918828    -0.84500
C1025       C  0.32682741  0.24088097  0.62510966     1.03200
O1026       O  0.37036455  0.25960543  0.61812416    -0.77300
O1027       O  0.46681870  0.29141948  0.62092461    -0.77400
C1028       C  0.46863903  0.25496372  0.61190807     1.03100
Cr1029     Cr  0.44994110  0.22491641  0.67434465     1.93700
Cr1030     Cr  0.34533680  0.19941770  0.68089089     1.93200
Cr1031     Cr  0.41964581  0.29367774  0.64989711     1.39100
O1032       O  0.40486691  0.23964659  0.66843290    -1.22500
C1033       C  0.26858523  0.34863586  0.73243252    -0.04800
C1034       C  0.24792831  0.29789935  0.73082814    -0.01900
C1035       C  0.27453804  0.27796866  0.71936424     0.03100
C1036       C  0.32361161  0.30800416  0.71192502    -0.04800
C1037       C  0.34450722  0.35862796  0.71378792    -0.01900
C1038       C  0.31690569  0.37878413  0.72325743     0.03100
C1039       C  0.19906081  0.26547523  0.74092352     0.37800
C1040       C  0.39423736  0.39044160  0.70520947     0.37700
C1041       C  0.33780439  0.43064109  0.72177361     0.36200
C1042       C  0.24956486  0.22680929  0.71234558     0.36200
N1043       N  0.35449953  0.47197206  0.72029823    -0.38700
N1044       N  0.22906731  0.18620570  0.70625246    -0.38700
N1045       N  0.43376038  0.41611928  0.69821783    -0.38100
N1046       N  0.16013611  0.23953781  0.74892066    -0.38100
C1047       C  0.09254400  0.73117616  0.56314078    -0.04800
C1048       C  0.05392800  0.71080038  0.58343579    -0.01900
C1049       C  0.00642935  0.68101829  0.57255844     0.03100
C1050       C  0.99756109  0.66658275  0.54155183    -0.04800
C1051       C  0.03787805  0.68381466  0.52197063    -0.01900
C1052       C  0.08417527  0.71873113  0.53233168     0.03100
C1053       C  0.06291065  0.72289941  0.61539277     0.37800
C1054       C  0.03249646  0.66819692  0.49064761     0.37700
C1055       C  0.12279109  0.74443822  0.51092778     0.36200
C1056       C  0.96749791  0.66836128  0.59346875     0.36200
N1057       N  0.15345383  0.76628497  0.49398505    -0.38700
N1058       N  0.93780273  0.66069481  0.61078580    -0.38700
N1059       N  0.02872568  0.65582692  0.46569068    -0.38100
N1060       N  0.07009431  0.73239800  0.64086750    -0.38100
C1061       C  0.35390163  0.08360197  0.64473758    -0.04800
C1062       C  0.34561796  0.04472715  0.66352237    -0.01900
C1063       C  0.33204227  0.99953679  0.65063728     0.03100
C1064       C  0.32829109  0.99346967  0.61885066    -0.04800
C1065       C  0.34264056  0.03426243  0.60018827    -0.01900
C1066       C  0.35296922  0.07844422  0.61304310     0.03100
C1067       C  0.34991256  0.05084948  0.69614420     0.37800
C1068       C  0.34875181  0.03180989  0.56792286     0.37700
C1069       C  0.36276763  0.11869557  0.59356484     0.36200
C1070       C  0.32464244  0.96011319  0.67007155     0.36200
N1071       N  0.36999848  0.15052173  0.57798146    -0.38700
N1072       N  0.31967017  0.92909057  0.68567508    -0.38700
N1073       N  0.35568296  0.03069931  0.54238413    -0.38100
N1074       N  0.35352672  0.05567025  0.72216076    -0.38100
C1075       C  0.92690964  0.27085230  0.81599705    -0.04800
C1076       C  0.96117595  0.25641471  0.81919249    -0.01900
C1077       C  0.00882385  0.28661663  0.80923682     0.03100
C1078       C  0.02369378  0.33291818  0.79700872    -0.04800
C1079       C  0.99006253  0.34850219  0.79558848    -0.01900
C1080       C  0.94195758  0.31757216  0.80468747     0.03100
C1081       C  0.94792765  0.21083915  0.83361370     0.37800
C1082       C  0.00485940  0.39675120  0.78515875     0.37700
C1083       C  0.90783403  0.33383947  0.80154922     0.36200
C1084       C  0.04148144  0.26829863  0.81037239     0.36200
N1085       N  0.88096716  0.34724166  0.79906081    -0.38700
N1086       N  0.06719081  0.25332337  0.81124342    -0.38700
N1087       N  0.01646511  0.43526664  0.77702072    -0.38100
N1088       N  0.93747463  0.17468541  0.84528155    -0.38100
C1089       C  0.64075280  0.18715623  0.86441862    -0.04800
C1090       C  0.61258596  0.15167521  0.88624166    -0.01900
C1091       C  0.57587072  0.15378963  0.90191608     0.03100
C1092       C  0.56610866  0.19105565  0.89598494    -0.04800
C1093       C  0.59660743  0.22864934  0.87610202    -0.01900
C1094       C  0.63381144  0.22688691  0.86055372     0.03100
C1095       C  0.62250725  0.11380726  0.89387256     0.37800
C1096       C  0.58801536  0.26782559  0.87004135     0.37700
C1097       C  0.66416973  0.26592094  0.84021309     0.36200
C1098       C  0.54903300  0.11807705  0.92502453     0.36200
N1099       N  0.68859334  0.29750733  0.82432048    -0.38700
N1100       N  0.52778683  0.08974435  0.94351248    -0.38700
N1101       N  0.58098748  0.29887186  0.86493879    -0.38100
N1102       N  0.63036278  0.08368173  0.90016373    -0.38100
C1103       C  0.31004937  0.04095439  0.98324125    -0.04800
C1104       C  0.30882782  0.99853415  0.97348246    -0.01900
C1105       C  0.27723296  0.94988435  0.48330310     0.03100
C1106       C  0.25257339  0.94646930  0.51009042    -0.04800
C1107       C  0.24733425  0.98622721  0.51805478    -0.01900
C1108       C  0.27348192  0.03060954  0.50223256     0.03100
C1109       C  0.34525311  0.99958575  0.95420512     0.37800
C1110       C  0.21616899  0.98220039  0.54263749     0.37700
C1111       C  0.26873209  0.07142266  0.51036603     0.36200
C1112       C  0.27072393  0.90691322  0.46832114     0.36200
N1113       N  0.26501847  0.10406877  0.51686012    -0.38700
N1114       N  0.26501442  0.87286426  0.45587374    -0.38700
N1115       N  0.19114078  0.97903320  0.56219407    -0.38100
N1116       N  0.37385434  0.99658872  0.94038100    -0.38100
C1117       C  0.48841617  0.23334886  0.51612864    -0.04800
C1118       C  0.48974351  0.20283464  0.53881910    -0.01900
C1119       C  0.48762770  0.21220882  0.57000719     0.03100
C1120       C  0.48222183  0.25136375  0.57945937    -0.04800
C1121       C  0.48679459  0.28497634  0.55695487    -0.01900
C1122       C  0.49144341  0.27686346  0.52592582     0.03100
C1123       C  0.49292639  0.16107590  0.53053334     0.37800
C1124       C  0.48545456  0.32785292  0.56506349     0.37700
C1125       C  0.51361334  0.31852596  0.00287742     0.36200
C1126       C  0.49067400  0.18057439  0.59215188     0.36200
N1127       N  0.52279835  0.34884359  0.98549090    -0.38700
N1128       N  0.49309409  0.15515882  0.60964787    -0.38700
N1129       N  0.48427269  0.36205684  0.57122726    -0.38100
N1130       N  0.49561872  0.12778553  0.52416765    -0.38100
C1131       C  0.41095443  0.20357684  0.83004937    -0.04800
C1132       C  0.44509123  0.19854096  0.81292455    -0.01900
C1133       C  0.44360866  0.19840771  0.78104096     0.03100
C1134       C  0.40465149  0.19714953  0.76564902    -0.04800
C1135       C  0.36655467  0.19441155  0.78277774    -0.01900
C1136       C  0.37032729  0.19929164  0.81459930     0.03100
C1137       C  0.47815372  0.18703245  0.82750794     0.37800
C1138       C  0.32278607  0.18602776  0.76806943     0.37700
C1139       C  0.33118223  0.19836780  0.83103888     0.36200
C1140       C  0.48131002  0.19709897  0.76418682     0.36200
N1141       N  0.29946200  0.19696814  0.84388170    -0.38700
N1142       N  0.51154950  0.19631400  0.75086788    -0.38700
N1143       N  0.28689227  0.17807828  0.75713585    -0.38100
N1144       N  0.50356388  0.17554424  0.83799636    -0.38100
C1145       C  0.81625279  0.36469943  0.54922058    -0.04800
C1146       C  0.78230376  0.37748823  0.55749197    -0.01900
C1147       C  0.78304105  0.41744766  0.54380077     0.03100
C1148       C  0.81733303  0.44427635  0.52119691    -0.04800
C1149       C  0.84861266  0.42857804  0.51123324    -0.01900
C1150       C  0.84784814  0.38882493  0.52511751     0.03100
C1151       C  0.74633947  0.34914296  0.57994685     0.37800
C1152       C  0.88036591  0.45346120  0.98700670     0.37700
C1153       C  0.87904066  0.37216356  0.51419010     0.36200
C1154       C  0.74997571  0.43201868  0.55422713     0.36200
N1155       N  0.90426924  0.36070699  0.00633181    -0.38700
N1156       N  0.72337851  0.44321889  0.56278979    -0.38700
N1157       N  0.90586262  0.47247153  0.96688627    -0.38100
N1158       N  0.71712873  0.32602659  0.59747799    -0.38100
C1159       C  0.96001332  0.26361759  0.65845877    -0.04800
C1160       C  0.99133115  0.24511283  0.65838359    -0.01900
C1161       C  0.03366131  0.26723072  0.67666351     0.03100
C1162       C  0.04695210  0.31067433  0.69207527    -0.04800
C1163       C  0.01515314  0.32832690  0.69204370    -0.01900
C1164       C  0.96981853  0.30150744  0.67867332     0.03100
C1165       C  0.98188782  0.20577134  0.63834371     0.37800
C1166       C  0.02983303  0.37627178  0.70327998     0.37700
C1167       C  0.93488368  0.31587818  0.68468280     0.36200
C1168       C  0.06532221  0.24789305  0.67757517     0.36200
N1169       N  0.90946786  0.32962337  0.69134702    -0.38700
N1170       N  0.09063232  0.23244508  0.67839305    -0.38700
N1171       N  0.04094687  0.41486699  0.71100968    -0.38100
N1172       N  0.97477425  0.17445731  0.62230935    -0.38100
C1173       C  0.79021138  0.25582138  0.67857724    -0.04800
C1174       C  0.76221930  0.27136868  0.69390431    -0.01900
C1175       C  0.74998075  0.25928804  0.72498906     0.03100
C1176       C  0.76759855  0.23362984  0.74133002    -0.04800
C1177       C  0.79656897  0.21959212  0.72606110    -0.01900
C1178       C  0.80473955  0.22753885  0.69478822     0.03100
C1179       C  0.74695745  0.30057653  0.67806432     0.37800
C1180       C  0.81975489  0.19788856  0.74244182     0.37700
C1181       C  0.82531303  0.20296773  0.67929953     0.36200
C1182       C  0.72116274  0.27507229  0.74045129     0.36200
N1183       N  0.84018933  0.18061966  0.66867337    -0.38700
N1184       N  0.69821978  0.28790853  0.75271100    -0.38700
N1185       N  0.83982529  0.18137355  0.75447863    -0.38100
N1186       N  0.73471821  0.32411105  0.66565894    -0.38100
C1187       C  0.79871136  0.19936184  0.93019549    -0.04800
C1188       C  0.76791781  0.20913959  0.94786048    -0.01900
C1189       C  0.76786259  0.20605597  0.97988271     0.03100
C1190       C  0.79729758  0.19173276  0.99485513    -0.04800
C1191       C  0.82366631  0.17688566  0.97726257    -0.01900
C1192       C  0.82687269  0.18341966  0.94563872     0.03100
C1193       C  0.73669375  0.22365705  0.93371148     0.37800
C1194       C  0.84747884  0.15412146  0.99175542     0.37700
C1195       C  0.86164671  0.17586537  0.92982459     0.36200
C1196       C  0.73789066  0.21860179  0.99724883     0.36200
N1197       N  0.89006082  0.17047035  0.91760720    -0.38700
N1198       N  0.72872148  0.24581865  0.50958836    -0.38700
N1199       N  0.85856552  0.12765252  0.50281785    -0.38100
N1200       N  0.71173027  0.23554224  0.92290672    -0.38100
C1201       C  0.24543151  0.29825245  0.58419902    -0.04800
C1202       C  0.23057004  0.24932875  0.57892379    -0.01900
C1203       C  0.25514120  0.22864476  0.59347142     0.03100
C1204       C  0.29753364  0.25859081  0.61030495    -0.04800
C1205       C  0.31101034  0.30704825  0.61545096    -0.01900
C1206       C  0.28031626  0.32342067  0.60681903     0.03100
C1207       C  0.19239531  0.22160724  0.55730639     0.37800
C1208       C  0.35976664  0.34300681  0.62421857     0.37700
C1209       C  0.29088602  0.37041769  0.61731603     0.36200
C1210       C  0.24026733  0.17861670  0.58840613     0.36200
N1211       N  0.30145963  0.40787057  0.62696208    -0.38700
N1212       N  0.22852160  0.13867734  0.58425141    -0.38700
N1213       N  0.39883557  0.37294523  0.62982463    -0.38100
N1214       N  0.16174676  0.19947742  0.54007973    -0.38100
C1215       C  0.25843388  0.47670618  0.60099913    -0.04800
C1216       C  0.27719947  0.52110973  0.61659013    -0.01900
C1217       C  0.26435135  0.52182852  0.64737599     0.03100
C1218       C  0.23555290  0.47804863  0.66313890    -0.04800
C1219       C  0.21810576  0.43424981  0.64736579    -0.01900
C1220       C  0.22544913  0.43401984  0.61617659     0.03100
C1221       C  0.31014592  0.56556270  0.60130477     0.37800
C1222       C  0.19604314  0.38855438  0.66317662     0.37700
C1223       C  0.19649455  0.38929176  0.59973274     0.36200
C1224       C  0.28260059  0.56719596  0.66317839     0.36200
N1225       N  0.17057124  0.35299503  0.58800017    -0.38700
N1226       N  0.29719331  0.60353566  0.67574063    -0.38700
N1227       N  0.17983177  0.35110400  0.67442070    -0.38100
N1228       N  0.33648918  0.60113888  0.58911195    -0.38100
C1229       C  0.21205513  0.40940979  0.85049157    -0.04800
C1230       C  0.19670887  0.36484486  0.86550428    -0.01900
C1231       C  0.19347679  0.36180031  0.89734024     0.03100
C1232       C  0.20900283  0.40366134  0.91525319    -0.04800
C1233       C  0.22446737  0.44817114  0.90050771    -0.01900
C1234       C  0.22450781  0.45077745  0.86855763     0.03100
C1235       C  0.18440732  0.32127816  0.84872551     0.37800
C1236       C  0.24210764  0.49228529  0.91791976     0.37700
C1237       C  0.23725186  0.49671116  0.85484738     0.36200
C1238       C  0.17303110  0.31467981  0.91146137     0.36200
N1239       N  0.24731245  0.53352757  0.84432521    -0.38700
N1240       N  0.15671502  0.27707166  0.92255621    -0.38700
N1241       N  0.25635335  0.52777527  0.93143339    -0.38100
N1242       N  0.17476241  0.28642095  0.83560580    -0.38100
C1243       C  0.09562789  0.36853211  0.52893004    -0.04800
C1244       C  0.08591137  0.39086045  0.55347097    -0.01900
C1245       C  0.03803975  0.37593226  0.56147240     0.03100
C1246       C  0.99915827  0.34042493  0.54434007    -0.04800
C1247       C  0.00864984  0.32200261  0.51806233    -0.01900
C1248       C  0.05632411  0.33533483  0.51054869     0.03100
C1249       C  0.12445792  0.42878003  0.57129125     0.37800
C1250       C  0.96888816  0.28883886  0.49878569     0.37700
C1251       C  0.06447059  0.31516147  0.48349469     0.36200
C1252       C  0.02872468  0.39464023  0.58882465     0.36200
N1253       N  0.06967460  0.30057522  0.96131741    -0.38700
N1254       N  0.02137797  0.40931173  0.61074529    -0.38700
N1255       N  0.93729477  0.26285341  0.48317757    -0.38100
N1256       N  0.15422383  0.45979244  0.58563322    -0.38100
C1257       C  0.33737706  0.33997442  0.97418296    -0.04800
C1258       C  0.35421877  0.31718057  0.99380220    -0.01900
C1259       C  0.36750117  0.28490653  0.98237427     0.03100
C1260       C  0.36897196  0.27901104  0.95085970    -0.04800
C1261       C  0.35729986  0.30609773  0.93102089    -0.01900
C1262       C  0.33969224  0.33496863  0.94266366     0.03100
C1263       C  0.35991838  0.32852742  0.02572055     0.37800
C1264       C  0.36218981  0.30332220  0.89863683     0.37700
C1265       C  0.32341160  0.35906487  0.92232943     0.36200
C1266       C  0.37931758  0.25757615  0.00316700     0.36200
N1267       N  0.31031649  0.37831154  0.90617359    -0.38700
N1268       N  0.38788114  0.23530765  0.01988818    -0.38700
N1269       N  0.36669045  0.30165448  0.87279628    -0.38100
N1270       N  0.35544250  0.32291282  0.55245957    -0.38100
C1271       C  0.38473795  0.55182995  0.97662204    -0.04800
C1272       C  0.38676406  0.59559930  0.97011273    -0.01900
C1273       C  0.42555707  0.63216550  0.95349025     0.03100
C1274       C  0.46203867  0.62457291  0.94170400    -0.04800
C1275       C  0.45956523  0.58026319  0.94838361    -0.01900
C1276       C  0.42228912  0.54515392  0.96654797     0.03100
C1277       C  0.35008719  0.60412922  0.98206046     0.37800
C1278       C  0.50880334  0.58056778  0.45199178     0.37700
C1279       C  0.43148733  0.50858167  0.48467311     0.36200
C1280       C  0.42854131  0.67833747  0.95013235     0.36200
N1281       N  0.43551782  0.47748394  0.49433584    -0.38700
N1282       N  0.43085530  0.71517381  0.94777706    -0.38700
N1283       N  0.54247408  0.57712660  0.44932115    -0.38100
N1284       N  0.32093810  0.61093656  0.99171302    -0.38100
C1285       C  0.65532286  0.91734733  0.89261263    -0.04800
C1286       C  0.62454088  0.92980735  0.87735501    -0.01900
C1287       C  0.64171830  0.97787739  0.86785169     0.03100
C1288       C  0.69035260  0.01427359  0.87286825    -0.04800
C1289       C  0.72044127  0.00183217  0.88942933    -0.01900
C1290       C  0.70267653  0.95421649  0.89968282     0.03100
C1291       C  0.57520470  0.89308848  0.87069011     0.37800
C1292       C  0.77074421  0.03698319  0.89512508     0.37700
C1293       C  0.73310271  0.94353558  0.91847357     0.36200
C1294       C  0.60871073  0.98967465  0.85330471     0.36200
N1295       N  0.75712017  0.93499908  0.93362386    -0.38700
N1296       N  0.58219229  0.99897326  0.84186080    -0.38700
N1297       N  0.81096450  0.06446475  0.89975288    -0.38100
N1298       N  0.53566330  0.86422986  0.86537493    -0.38100
C1299       C  0.68571657  0.68954254  0.95804157    -0.04800
C1300       C  0.69666073  0.69614611  0.98953099    -0.01900
C1301       C  0.72617580  0.68020063  0.00280757     0.03100
C1302       C  0.74773375  0.66085069  0.98449214    -0.04800
C1303       C  0.73874460  0.65641020  0.95320317    -0.01900
C1304       C  0.70477653  0.66630458  0.94050768     0.03100
C1305       C  0.67867789  0.71872122  0.50984119     0.37800
C1306       C  0.76708323  0.64465386  0.93369656     0.37700
C1307       C  0.69086178  0.65309868  0.90910098     0.36200
C1308       C  0.73793088  0.68608014  0.53602118     0.36200
N1309       N  0.67949572  0.64225269  0.88413016    -0.38700
N1310       N  0.74647723  0.69120538  0.56168894    -0.38700
N1311       N  0.79095924  0.63665656  0.91837699    -0.38100
N1312       N  0.66331541  0.73626100  0.52545307    -0.38100
C1313       C  0.38574826  0.83122422  0.61100421    -0.04800
C1314       C  0.41593920  0.86760392  0.63200099    -0.01900
C1315       C  0.45424758  0.86629037  0.64665877     0.03100
C1316       C  0.46492283  0.82998251  0.63951245    -0.04800
C1317       C  0.43587392  0.79462612  0.61761602    -0.01900
C1318       C  0.39624306  0.79480063  0.60388729     0.03100
C1319       C  0.40790162  0.90682569  0.63890161     0.37800
C1320       C  0.44771842  0.75900558  0.60796377     0.37700
C1321       C  0.36767002  0.75847380  0.58128139     0.36200
C1322       C  0.48162882  0.90189110  0.66991173     0.36200
N1323       N  0.34491202  0.72949187  0.56327075    -0.38700
N1324       N  0.50332599  0.93030294  0.68844157    -0.38700
N1325       N  0.45698966  0.73059873  0.60000048    -0.38100
N1326       N  0.40249304  0.93880748  0.64417190    -0.38100
C1327       C  0.70021590  0.95153669  0.73893525    -0.04800
C1328       C  0.75029276  0.97935192  0.74491531    -0.01900
C1329       C  0.77022826  0.02401958  0.76069565     0.03100
C1330       C  0.74070972  0.04249004  0.76923002    -0.04800
C1331       C  0.69079577  0.01492993  0.76287118    -0.01900
C1332       C  0.67057360  0.96950325  0.74890630     0.03100
C1333       C  0.78119708  0.96161837  0.73544567     0.37800
C1334       C  0.65911982  0.03281820  0.77082739     0.44900
C1335       C  0.61866351  0.94238587  0.74437743     0.36200
C1336       C  0.82129164  0.05168521  0.76730089     0.36200
N1337       N  0.57730156  0.92126040  0.74125142    -0.38700
N1338       N  0.86207765  0.07383177  0.77260873    -0.38700
N1339       N  0.63361502  0.04684090  0.77668098    -0.38100
N1340       N  0.80590924  0.94748796  0.72784158    -0.38100
C1341       C  0.53593688  0.76261560  0.75523790    -0.04800
C1342       C  0.56352641  0.74312517  0.76638395    -0.01900
C1343       C  0.55894452  0.72712957  0.79642145     0.03100
C1344       C  0.53392858  0.73861217  0.81763216    -0.04800
C1345       C  0.50576416  0.75771277  0.80688211    -0.01900
C1346       C  0.50589560  0.76866944  0.77572502     0.03100
C1347       C  0.60308511  0.74683706  0.74918088     0.37800
C1348       C  0.47458331  0.76357641  0.82755905     0.37700
C1349       C  0.47597947  0.78721953  0.76509841     0.36200
C1350       C  0.58154225  0.69988660  0.80511566     0.36200
N1351       N  0.45225378  0.80221530  0.75664226    -0.38700
N1352       N  0.59898284  0.67726107  0.81101300    -0.38700
N1353       N  0.44909476  0.76766833  0.84387923    -0.38100
N1354       N  0.63696507  0.75140763  0.73752243    -0.38100
C1355       C  0.60694753  0.80732475  0.57017586    -0.04800
C1356       C  0.57951674  0.76160782  0.55647780    -0.01900
C1357       C  0.57493219  0.75749364  0.52478313     0.03100
C1358       C  0.59768151  0.79920728  0.50651892    -0.04800
C1359       C  0.62401046  0.84509141  0.52031224    -0.01900
C1360       C  0.62923943  0.84913272  0.55202506     0.03100
C1361       C  0.55745328  0.71847487  0.57506450     0.37800
C1362       C  0.64450317  0.88838404  0.50188585     0.37700
C1363       C  0.65693389  0.89662323  0.56554177     0.36200
C1364       C  0.54889443  0.70992648  0.51124139     0.36200
N1365       N  0.67962037  0.93544651  0.57494512    -0.38700
N1366       N  0.52412390  0.66786120  0.00009035    -0.38700
N1367       N  0.66056565  0.92278965  0.48715674    -0.38100
N1368       N  0.54004577  0.68419607  0.58993249    -0.38100
C1369       C  0.69194702  0.99666441  0.63912231    -0.04800
C1370       C  0.66943360  0.02078536  0.62735979    -0.01900
C1371       C  0.69751097  0.06805650  0.61587704     0.03100
C1372       C  0.74845828  0.09150821  0.61615308    -0.04800
C1373       C  0.77074097  0.06698618  0.62797520    -0.01900
C1374       C  0.74265099  0.01988154  0.63932710     0.03100
C1375       C  0.61738305  0.99597273  0.62562319     0.37800
C1376       C  0.82274406  0.09027612  0.62916116     0.37700
C1377       C  0.76635022  0.99539814  0.65132766     0.36200
C1378       C  0.67369038  0.09145345  0.60244873     0.36200
N1379       N  0.78586117  0.97633435  0.66058897    -0.38700
N1380       N  0.65467800  0.11005506  0.59166805    -0.38700
N1381       N  0.86415588  0.10841656  0.63025683    -0.38100
N1382       N  0.57586800  0.97602587  0.62399264    -0.38100
C1383       C  0.62731933  0.44897231  0.73147626    -0.04800
C1384       C  0.58000338  0.43239044  0.74133446    -0.01900
C1385       C  0.54055844  0.39244248  0.72709449     0.03100
C1386       C  0.54778032  0.36970995  0.70196085    -0.04800
C1387       C  0.59532739  0.38516815  0.69286954    -0.01900
C1388       C  0.63489546  0.42356695  0.70818322     0.03100
C1389       C  0.57206985  0.45503852  0.76720437     0.37800
C1390       C  0.60379043  0.36314615  0.66686830     0.37700
C1391       C  0.68327800  0.43674460  0.69962391     0.36200
C1392       C  0.49272805  0.37337589  0.73937246     0.36200
N1393       N  0.72144300  0.44586296  0.69271937    -0.38700
N1394       N  0.45471143  0.35788650  0.74941567    -0.38700
N1395       N  0.61062378  0.34585434  0.64603008    -0.38100
N1396       N  0.56589189  0.47295158  0.78796875    -0.38100
C1397       C  0.79329017  0.57615246  0.66162635    -0.04800
C1398       C  0.75684751  0.57696397  0.64435996    -0.01900
C1399       C  0.76052797  0.58046549  0.61267051     0.03100
C1400       C  0.79859917  0.57941482  0.59830792    -0.04800
C1401       C  0.82979855  0.56977606  0.61530374    -0.01900
C1402       C  0.82873118  0.57058638  0.64713471     0.03100
C1403       C  0.71461826  0.57205889  0.65897236     0.37800
C1404       C  0.86185934  0.55780367  0.60000091     0.37700
C1405       C  0.86332218  0.56493585  0.66494733     0.36200
C1406       C  0.72399898  0.58273339  0.59477482     0.36200
N1407       N  0.89084369  0.56038653  0.67923821    -0.38700
N1408       N  0.69441839  0.58386413  0.58057122    -0.38700
N1409       N  0.88700611  0.54778411  0.58770144    -0.38100
N1410       N  0.68001053  0.56666069  0.67016954    -0.38100
C1411       C  0.74474678  0.52523891  0.84895428    -0.04800
C1412       C  0.71719565  0.53093554  0.87151268    -0.01900
C1413       C  0.72712401  0.52870002  0.90251702     0.03100
C1414       C  0.76742715  0.52487310  0.91143015    -0.04800
C1415       C  0.78864387  0.51032438  0.88906338    -0.01900
C1416       C  0.77583901  0.50872748  0.85822714     0.03100
C1417       C  0.67819592  0.53863226  0.86321745     0.37800
C1418       C  0.82250444  0.49538440  0.89743176     0.37700
C1419       C  0.79131993  0.48596433  0.83649335     0.36200
C1420       C  0.69516718  0.53000902  0.92489196     0.36200
N1421       N  0.80228968  0.46602772  0.81959902    -0.38700
N1422       N  0.66944943  0.53094869  0.94256365    -0.38700
N1423       N  0.84932870  0.48315696  0.90396490    -0.38100
N1424       N  0.64667621  0.54413328  0.85657901    -0.38100
C1425       C  0.72466861  0.76249183  0.84926925    -0.04800
C1426       C  0.72234973  0.76589806  0.81765275    -0.01900
C1427       C  0.74327671  0.74641498  0.79872160     0.03100
C1428       C  0.76443472  0.72134467  0.81149182    -0.04800
C1429       C  0.77505508  0.72695489  0.84271711    -0.01900
C1430       C  0.75709918  0.74963907  0.86143427     0.03100
C1431       C  0.70083129  0.79199632  0.80505110     0.37800
C1432       C  0.80564744  0.71064667  0.85513577     0.37700
C1433       C  0.77218622  0.75993100  0.89282304     0.36200
C1434       C  0.74397708  0.75348116  0.76646323     0.36200
N1435       N  0.78517206  0.76918265  0.91769607    -0.38700
N1436       N  0.74580009  0.76179884  0.74091855    -0.38700
N1437       N  0.83105792  0.69841015  0.86458687    -0.38100
N1438       N  0.68462879  0.81406394  0.79551137    -0.38100
C1439       C  0.69518374  0.67051384  0.69927515    -0.04800
C1440       C  0.72531359  0.71194530  0.68154930    -0.01900
C1441       C  0.70792299  0.74141519  0.67050055     0.03100
C1442       C  0.65992484  0.72884586  0.67572075    -0.04800
C1443       C  0.62779542  0.68285175  0.68807240    -0.01900
C1444       C  0.64548427  0.65421313  0.70017106     0.03100
C1445       C  0.77505930  0.72645065  0.67600080     0.37800
C1446       C  0.57690424  0.66600290  0.69014983     0.37700
C1447       C  0.61227966  0.60750702  0.71311968     0.36200
C1448       C  0.73948671  0.78472884  0.65354859     0.36200
N1449       N  0.58585330  0.57005521  0.72323806    -0.38700
N1450       N  0.76456891  0.81911738  0.63988393    -0.38700
N1451       N  0.53625613  0.65234415  0.69185202    -0.38100
N1452       N  0.81467486  0.73804215  0.67133168    -0.38100
C1453       C  0.19317238  0.55700148  0.78833015    -0.04800
C1454       C  0.15759829  0.54786360  0.81019511    -0.01900
C1455       C  0.15504733  0.58616231  0.82360053     0.03100
C1456       C  0.18886530  0.63452391  0.81615859    -0.04800
C1457       C  0.22772985  0.64384921  0.79698095    -0.01900
C1458       C  0.22976223  0.60535118  0.78311266     0.03100
C1459       C  0.12509327  0.49898795  0.82047698     0.37800
C1460       C  0.26478871  0.69307660  0.79023307     0.37700
C1461       C  0.26945970  0.61594168  0.76327683     0.36200
C1462       C  0.11848446  0.57553307  0.84610900     0.36200
N1463       N  0.30156312  0.62459620  0.74779296    -0.38700
N1464       N  0.08944677  0.56704600  0.86412366    -0.38700
N1465       N  0.29437057  0.73223411  0.78466363    -0.38100
N1466       N  0.09962096  0.46019365  0.82906172    -0.38100
C1467       C  0.04429643  0.75376492  0.90081264    -0.04800
C1468       C  0.05019264  0.76330939  0.93211923    -0.01900
C1469       C  0.00946077  0.74436445  0.95116682     0.03100
C1470       C  0.96303158  0.71110060  0.93933882    -0.04800
C1471       C  0.95730071  0.70534913  0.90759737    -0.01900
C1472       C  0.99732344  0.73023388  0.88860331     0.03100
C1473       C  0.09814140  0.79428950  0.94424804     0.37800
C1474       C  0.91100651  0.67142696  0.89413731     0.37700
C1475       C  0.98922749  0.73338948  0.85680105     0.36200
C1476       C  0.01600942  0.75807026  0.98281386     0.36200
N1477       N  0.98030973  0.73736168  0.83202573    -0.38700
N1478       N  0.02143062  0.76997270  0.00792680    -0.38700
N1479       N  0.87481807  0.64306664  0.88321763    -0.38100
N1480       N  0.13662104  0.81980173  0.95343323    -0.38100
C1481       C  0.26805165  0.92617492  0.86041209    -0.04800
C1482       C  0.24935758  0.95118408  0.87639346    -0.01900
C1483       C  0.27944780  0.00013317  0.88441330     0.03100
C1484       C  0.32957062  0.02386457  0.87957222    -0.04800
C1485       C  0.34888261  0.99941419  0.86448167    -0.01900
C1486       C  0.31839182  0.95167472  0.85392058     0.03100
C1487       C  0.19951451  0.92686704  0.88594557     0.37800
C1488       C  0.40030531  0.02404224  0.85924209     0.37700
C1489       C  0.33977573  0.92989011  0.83607372     0.36200
C1490       C  0.25835810  0.02577548  0.89823782     0.36200
N1491       N  0.35711203  0.91293720  0.82168597    -0.38700
N1492       N  0.24079968  0.04582150  0.90875399    -0.38700
N1493       N  0.44133054  0.04379942  0.85516950    -0.38100
N1494       N  0.16000867  0.90776791  0.89395466    -0.38100
C1495       C  0.02095837  0.68768161  0.78985298    -0.04800
C1496       C  0.00732111  0.71755033  0.77434949    -0.01900
C1497       C  0.95906898  0.69898228  0.76517173     0.03100
C1498       C  0.92406254  0.65001496  0.77019477    -0.04800
C1499       C  0.93973239  0.61878272  0.78094928    -0.01900
C1500       C  0.98761483  0.63766263  0.79122279     0.03100
C1501       C  0.04124339  0.76872402  0.77039446     0.37800
C1502       C  0.90727316  0.56708079  0.78127617     0.37700
C1503       C  0.00285477  0.60532073  0.80259352     0.36200
C1504       C  0.94570240  0.73084641  0.75059236     0.36200
N1505       N  0.01508991  0.57952267  0.81149129    -0.38700
N1506       N  0.93507130  0.75632543  0.73908994    -0.38700
N1507       N  0.88232520  0.52563843  0.78085601    -0.38100
N1508       N  0.06801521  0.80957031  0.76737517    -0.38100
C1509       C  0.23456426  0.75226213  0.93150446    -0.04800
C1510       C  0.27952203  0.79242084  0.94066428    -0.01900
C1511       C  0.29154620  0.80247705  0.97173149     0.03100
C1512       C  0.25993636  0.77129349  0.99438091    -0.04800
C1513       C  0.22107931  0.72592473  0.98483775    -0.01900
C1514       C  0.20753984  0.71701130  0.95382073     0.03100
C1515       C  0.31400152  0.82430224  0.91837910     0.37800
C1516       C  0.18244447  0.68549829  0.50773459     0.37700
C1517       C  0.16511313  0.67162059  0.94546359     0.36200
C1518       C  0.33593156  0.84637259  0.97981812     0.36200
N1519       N  0.13125387  0.63526462  0.93902835    -0.38700
N1520       N  0.37126418  0.88158835  0.98595253    -0.38700
N1521       N  0.15740753  0.65748640  0.52537726    -0.38100
N1522       N  0.34170668  0.84978641  0.90077255    -0.38100
C1523       C  0.21003223  0.80246399  0.74409885    -0.04800
C1524       C  0.20447557  0.76235724  0.72749233    -0.01900
C1525       C  0.20836793  0.76427918  0.69569238     0.03100
C1526       C  0.21129788  0.80350363  0.67960547    -0.04800
C1527       C  0.21049150  0.84081054  0.69592946    -0.01900
C1528       C  0.21295695  0.84184536  0.72786906     0.03100
C1529       C  0.18916183  0.71679856  0.74239865     0.37800
C1530       C  0.20713584  0.87850333  0.68016621     0.37700
C1531       C  0.21889591  0.88399985  0.74366289     0.36200
C1532       C  0.20664366  0.72428790  0.67953357     0.36200
N1533       N  0.22369970  0.91776061  0.75606299    -0.38700
N1534       N  0.20559536  0.69249787  0.66676025    -0.38700
N1535       N  0.20376803  0.90841199  0.66797509    -0.38100
N1536       N  0.17506863  0.67955524  0.75354022    -0.38100
loop_ 
_geom_bond_atom_site_label_1 
_geom_bond_atom_site_label_2 
_geom_bond_distance 
_geom_bond_site_symmetry_2 
_ccdc_geom_bond_type 
O1          Cr19   2.005       .  S
O1            C9   1.262       .  A
O2          Cr19   1.987       .  S
O2            C3   1.263       .  A
C3            O4   1.265       .  A
C3          C755   1.497       .  S
O4          Cr20   1.997       .  S
O5          Cr20   1.964       .  S
O5            C6   1.255       .  A
C6            O7   1.272       .  A
C6          C727   1.498       .  S
O7          Cr21   2.026       .  S
O8          Cr21   1.994       .  S
O8            C9   1.263       .  A
C9          C688   1.500       .  S
O10         Cr19   1.978       .  S
O10          C18   1.266       .  A
O11         Cr19   2.019       .  S
O11          C12   1.266       .  A
C12          O13   1.264       .  A
C12         C713   1.514       .  S
O13         Cr20   1.985       .  S
O14         Cr20   2.020       .  S
O14          C15   1.265       .  A
C15          O16   1.263       .  A
C15         C699   1.495       .  S
O16         Cr21   1.992       .  S
O17         Cr21   2.027       .  S
O17          C18   1.273       .  A
C18         C741   1.513       .  S
Cr19         O22   1.770       .  S
Cr20         O22   1.766       .  S
Cr21         O22   1.764       .  S
O23         Cr41   2.003       .  S
O23          C31   1.261       .  A
O24         Cr41   1.961       .  S
O24          C25   1.256       .  A
C25          O26   1.266       .  A
C25         C629   1.463       .  S
O26         Cr42   2.007       .  S
O27         Cr42   1.968       .  S
O27          C28   1.257       .  A
C28          O29   1.271       .  A
C28         C671   1.499       .  S
O29         Cr43   2.022       .  S
O30         Cr43   1.983       .  S
O30          C31   1.259       .  A
C31         C615   1.488       .  S
O32         Cr41   1.970       .  S
O32          C40   1.264       .  A
O33         Cr41   2.006       .  S
O33          C34   1.263       .  A
C34          O35   1.265       .  A
C34         C730   1.500       .  S
O35         Cr42   1.988       .  S
O36         Cr42   2.029       .  S
O36          C37   1.268       .  A
C37          O38   1.261       .  A
C37         C660   1.490       .  S
O38         Cr43   1.976       .  S
O39         Cr43   2.031       .  S
O39          C40   1.274       .  A
C40         C643   1.506       .  S
Cr41         O44   1.771       .  S
Cr42         O44   1.771       .  S
Cr43         O44   1.762       .  S
O45         Cr63   2.018       .  S
O45          C53   1.268       .  A
O46         Cr63   1.970       .  S
O46          C47   1.263       .  A
C47          O48   1.272       .  A
C47         C587   1.481       .  S
O48         Cr64   2.020       .  S
O49         Cr64   1.958       .  S
O49          C50   1.256       .  A
C50          O51   1.268       .  A
C50         C601   1.484       .  S
O51         Cr65   2.031       .  S
O52         Cr65   1.970       .  S
O52          C53   1.260       .  A
C53         C548   1.496       .  S
O54         Cr63   1.987       .  S
O54          C62   1.263       .  A
O55         Cr63   2.008       .  S
O55          C56   1.264       .  A
C56          O57   1.266       .  A
C56         C674   1.494       .  S
O57         Cr64   1.986       .  S
O58         Cr64   2.051       .  S
O58          C59   1.269       .  A
C59          O60   1.248       .  A
C59         C559   1.503       .  S
O60         Cr65   1.962       .  S
O61         Cr65   2.010       .  S
O61          C62   1.265       .  A
C62         C573   1.503       .  S
Cr63         O66   1.766       .  S
Cr64         O66   1.772       .  S
Cr65         O66   1.758       .  S
O67         Cr85   2.011       .  S
O67          C75   1.264       .  A
O68         Cr85   1.977       .  S
O68          C69   1.261       .  A
C69          O70   1.265       .  A
C69        C1358   1.479       .  S
O70         Cr86   1.995       .  S
O71         Cr86   1.993       .  S
O71          C72   1.264       .  A
C72          O73   1.264       .  A
C72         C531   1.504       .  S
O73         Cr87   1.994       .  S
O74         Cr87   1.979       .  S
O74          C75   1.258       .  A
C75         C506   1.517       .  S
O76         Cr85   1.986       .  S
O76          C84   1.264       .  A
O77         Cr85   2.014       .  S
O77          C78   1.265       .  A
C78          O79   1.263       .  A
C78         C517   1.503       .  S
O79         Cr86   1.984       .  S
O80         Cr86   2.004       .  S
O80          C81   1.262       .  A
C81          O82   1.264       .  A
C81         C657   1.490       .  S
O82         Cr87   1.988       .  S
O83         Cr87   2.014       .  S
O83          C84   1.268       .  A
C84         C576   1.497       .  S
Cr85         O88   1.776       .  S
Cr86         O88   1.772       .  S
Cr87         O88   1.758       .  S
O89        Cr107   1.984       .  S
O89          C97   1.256       .  A
O90        Cr107   2.015       .  S
O90          C91   1.268       .  A
C91          O92   1.258       .  A
C91         C464   1.504       .  S
O92        Cr108   1.963       .  S
O93        Cr108   2.009       .  S
O93          C94   1.266       .  A
C94          O95   1.267       .  A
C94         C489   1.486       .  S
O95        Cr877   1.997       .  S
O96        Cr877   2.002       .  S
O96          C97   1.260       .  A
C97         C503   1.496       .  S
O98        Cr875   2.033       .  S
O98         C106   1.271       .  A
O99        Cr875   1.969       .  S
O99         C100   1.255       .  A
C100        O101   1.271       .  A
C100        C475   1.512       .  S
O101       Cr876   2.030       .  S
O102       Cr876   2.006       .  S
O102        C103   1.266       .  A
C103        O104   1.257       .  A
C103        C433   1.482       .  S
O104       Cr109   1.962       .  S
O105       Cr109   1.970       .  S
O105        C106   1.261       .  A
C106        C447   1.500       .  S
Cr107       O866   2.034       .  S
Cr107       O867   1.965       .  S
Cr107       O110   1.784       .  S
Cr108       O869   2.031       .  S
Cr108       O870   2.001       .  S
Cr108       O110   1.779       .  S
Cr109       O863   1.991   1_554  S
Cr109       O864   1.998       .  S
Cr109       O878   1.772       .  S
O110       Cr877   1.771       .  S
O111       Cr129   1.980       .  S
O111        C119   1.255       .  A
O112       Cr129   2.020       .  S
O112        C113   1.269       .  A
C113        O114   1.260       .  A
C113       C1190   1.498   1_554  S
O114       Cr130   1.962       .  S
O115       Cr130   1.993       .  S
O115        C116   1.264       .  A
C116        O117   1.271       .  A
C116        C478   1.489       .  S
O117       Cr131   2.002       .  S
O118       Cr131   2.001       .  S
O118        C119   1.260       .  A
C119        C377   1.480       .  S
O120       Cr129   2.028       .  S
O120        C128   1.269       .  A
O121       Cr129   1.970       .  S
O121        C122   1.254       .  A
C122        O123   1.265       .  A
C122        C604   1.497       .  S
O123       Cr130   2.011       .  S
O124       Cr130   2.009       .  S
O124        C125   1.268       .  A
C125        O126   1.258       .  A
C125        C391   1.487       .  S
O126       Cr131   1.969       .  S
O127       Cr131   1.976       .  S
O127        C128   1.260       .  A
C128        C405   1.503       .  S
Cr129       O132   1.790       .  S
Cr130       O132   1.777       .  S
Cr131       O132   1.772       .  S
O133       Cr151   2.019       .  S
O133        C141   1.262       .  A
O134       Cr151   1.987       .  S
O134        C135   1.265       .  A
C135        O136   1.268       .  A
C135        C363   1.504       .  S
O136       Cr152   2.003       .  S
O137       Cr152   1.965       .  S
O137        C138   1.257       .  A
C138        O139   1.269       .  A
C138        C716   1.493       .  S
O139       Cr153   2.018       .  S
O140       Cr153   1.969       .  S
O140        C141   1.253       .  A
C141        C324   1.497       .  S
O142       Cr151   1.973       .  S
O142        C150   1.264       .  A
O143       Cr151   2.017       .  S
O143        C144   1.266       .  A
C144        O145   1.264       .  A
C144        C492   1.489       .  S
O145       Cr152   1.991       .  S
O146       Cr152   2.020       .  S
O146        C147   1.264       .  A
C147        O148   1.257       .  A
C147        C335   1.489       .  S
O148       Cr153   1.974       .  S
O149       Cr153   2.041       .  S
O149        C150   1.279       .  A
C150       C1117   1.525       .  S
Cr151       O154   1.777       .  S
Cr152       O154   1.773       .  S
Cr153       O154   1.762       .  S
O155       Cr173   2.008       .  S
O155        C163   1.263       .  A
O156       Cr173   1.982       .  S
O156        C157   1.263       .  A
C157        O158   1.268       .  A
C157        C419   1.513       .  S
O158       Cr174   2.009       .  S
O159       Cr174   1.965       .  S
O159        C160   1.256       .  A
C160        O161   1.271       .  A
C160        C520   1.502       .  S
O161       Cr175   2.041       .  S
O162       Cr175   1.980       .  S
O162        C163   1.260       .  A
C163        C321   1.500       .  S
O164       Cr173   1.981       .  S
O164        C172   1.263       .  A
O165       Cr173   2.007       .  S
O165        C166   1.265       .  A
C166        O167   1.263       .  A
C166        C307   1.493       .  S
O167       Cr174   1.980       .  S
O168       Cr174   2.034       .  S
O168        C169   1.268       .  A
C169        O170   1.256       .  A
C169        C562   1.491       .  S
O170       Cr175   1.964       .  S
O171       Cr175   2.038       .  S
O171        C172   1.275       .  A
C172        C408   1.497       .  S
Cr173       O176   1.771       .  S
Cr174       O176   1.766       .  S
Cr175       O176   1.763       .  S
O177       Cr195   2.010       .  S
O177        C185   1.266       .  A
O178       Cr195   1.983       .  S
O178        C179   1.264       .  A
C179        O180   1.265       .  A
C179        C758   1.489       .  S
O180       Cr196   2.002       .  S
O181       Cr196   1.985       .  S
O181        C182   1.263       .  A
C182        O183   1.264       .  A
C182        C296   1.491       .  S
O183       Cr197   1.999       .  S
O184       Cr197   1.973       .  S
O184        C185   1.259       .  A
C185        C545   1.497       .  S
O186       Cr195   1.994       .  S
O186        C194   1.264       .  A
O187       Cr195   2.003       .  S
O187        C188   1.263       .  A
C188        O189   1.261       .  A
C188        C279   1.477       .  S
O189       Cr196   1.981       .  S
O190       Cr196   2.007       .  S
O190        C191   1.262       .  A
C191        O192   1.264       .  A
C191        C338   1.499       .  S
O192       Cr197   1.975       .  S
O193       Cr197   2.012       .  S
O193        C194   1.265       .  A
C194       C1512   1.517   1_554  S
Cr195       O198   1.770       .  S
Cr196       O198   1.773       .  S
Cr197       O198   1.763       .  S
O199       Cr217   2.028       .  S
O199        C207   1.271       .  A
O200       Cr217   1.976       .  S
O200        C201   1.260       .  A
C201        O202   1.266       .  A
C201        C461   1.512       .  S
O202       Cr218   2.005       .  S
O203       Cr218   1.967       .  S
O203        C204   1.257       .  A
C204        O205   1.269       .  A
C204        C310   1.496       .  S
O205       Cr219   2.029       .  S
O206       Cr219   1.964       .  S
O206        C207   1.256       .  A
C207        C685   1.502       .  S
O208       Cr217   1.980       .  S
O208        C216   1.260       .  A
O209       Cr217   2.025       .  S
O209        C210   1.271       .  A
C210        O211   1.260       .  A
C210        C265   1.501       .  S
O211       Cr218   1.966       .  S
O212       Cr218   2.029       .  S
O212        C213   1.265       .  A
C213        O214   1.254       .  A
C213        C394   1.481       .  S
O214       Cr219   1.961       .  S
O215       Cr219   2.033       .  S
O215        C216   1.272       .  A
C216        C450   1.496       .  S
Cr217       O220   1.771       .  S
Cr218       O220   1.768       .  S
Cr219       O220   1.760       .  S
O221       Cr239   2.016       .  S
O221        C229   1.265       .  A
O222       Cr239   1.951       .  S
O222        C223   1.253       .  A
C223        O224   1.270       .  A
C223        C632   1.464       .  S
O224       Cr240   2.016       .  S
O225       Cr240   1.969       .  S
O225        C226   1.258       .  A
C226        O227   1.269       .  A
C226        C282   1.509       .  S
O227      Cr1009   2.018   1_554  S
O228      Cr1009   1.970   1_554  S
O228        C229   1.257       .  A
C229        C380   1.490       .  S
O230      Cr1007   1.964       .  S
O230        C238   1.259       .  A
O231      Cr1007   2.022       .  S
O231        C232   1.267       .  A
C232       O1001   1.258       .  A
C232        C534   1.482       .  S
O233       Cr240   1.978   1_556  S
O233       C1000   1.259       .  A
O234      Cr1008   2.024       .  S
O234        C235   1.268       .  A
C235        O236   1.261       .  A
C235        C702   1.500       .  S
O236       Cr241   1.968       .  S
O237       Cr241   2.032       .  S
O237        C238   1.273       .  A
C238        C646   1.512       .  S
Cr239       O998   1.962   1_554  S
Cr239       O999   2.022       .  S
Cr239       O242   1.772       .  S
Cr240      O1002   2.024   1_554  S
Cr240       O242   1.773       .  S
Cr241       O995   2.018       .  S
Cr241       O996   1.970       .  S
Cr241      O1010   1.760       .  S
O242      Cr1009   1.759   1_554  S
O243       Cr261   2.009       .  S
O243        C251   1.264       .  A
O244       Cr261   1.976       .  S
O244        C245   1.261       .  A
C245        O246   1.268       .  A
C245        C366   1.493       .  S
O246       Cr262   2.015       .  S
O247       Cr262   1.974       .  S
O247        C248   1.261       .  A
C248        O249   1.264       .  A
C248        C268   1.492       .  S
O249       Cr263   2.016       .  S
O250       Cr263   1.970       .  S
O250        C251   1.255       .  A
C251        C618   1.493       .  S
O252       Cr261   1.978       .  S
O252        C260   1.261       .  A
O253       Cr261   2.004       .  S
O253        C254   1.265       .  A
C254        O255   1.259       .  A
C254        C293   1.472       .  S
O255       Cr262   1.974       .  S
O256       Cr262   2.011       .  S
O256        C257   1.262       .  A
C257        O258   1.258       .  A
C257        C436   1.481       .  S
O258       Cr263   1.977       .  S
O259       Cr263   2.032       .  S
O259        C260   1.274       .  A
C260        C352   1.524       .  S
Cr261       O264   1.770       .  S
Cr262       O264   1.775       .  S
Cr263       O264   1.761       .  S
C265        C266   1.420       .  A
C265        C270   1.420       .  A
C266        C267   1.410       .  A
C266        C271   1.453       .  S
C267        C268   1.415       .  A
C267        C274   1.453       .  S
C268        C269   1.415       .  A
C269        C270   1.415       .  A
C269        C272   1.451       .  S
C270        C273   1.451       .  S
C271        N278   1.158       .  T
C272        N277   1.157       .  T
C273        N275   1.157       .  T
C274        N276   1.158       .  T
C279        C280   1.404       .  A
C279        C284   1.402       .  A
C280        C281   1.414       .  A
C280        C285   1.453       .  S
C281        C282   1.430   1_455  A
C281        C288   1.450   1_455  S
C282        C283   1.427   1_655  A
C283        C284   1.409       .  A
C283        C286   1.453   1_554  S
C284        C287   1.447       .  S
C285        N292   1.157       .  T
C286        N291   1.158       .  T
C287        N289   1.155   1_554  T
C288        N290   1.157       .  T
C293        C294   1.409       .  A
C293        C298   1.407       .  A
C294        C295   1.410       .  A
C294        C299   1.452       .  S
C295        C296   1.415   1_545  A
C295        C302   1.448   1_545  S
C296        C297   1.421   1_565  A
C297        C298   1.407       .  A
C297        C300   1.451       .  S
C298        C301   1.453       .  S
C299        N306   1.157       .  T
C300        N305   1.157       .  T
C301        N303   1.157       .  T
C302        N304   1.157       .  T
C307        C308   1.413       .  A
C307        C312   1.418       .  A
C308        C309   1.412   1_655  A
C308        C313   1.453       .  S
C309        C310   1.422       .  A
C309        C316   1.453       .  S
C310        C311   1.415   1_455  A
C311        C312   1.413       .  A
C311        C314   1.452   1_655  S
C312        C315   1.452       .  S
C313        N320   1.158       .  T
C314        N319   1.157       .  T
C315        N317   1.157       .  T
C316        N318   1.158       .  T
C321        C322   1.417       .  A
C321        C326   1.419       .  A
C322        C323   1.412       .  A
C322        C327   1.453       .  S
C323        C324   1.415       .  A
C323        C330   1.452       .  S
C324        C325   1.415       .  A
C325        C326   1.417       .  A
C325        C328   1.452       .  S
C326        C329   1.450       .  S
C327        N334   1.157       .  T
C328        N333   1.157       .  T
C329        N331   1.157       .  T
C330        N332   1.157       .  T
C335        C336   1.417   1_545  A
C335       C1108   1.412       .  A
C336       C1105   1.399       .  A
C336        C341   1.446       .  S
C337        C338   1.403   1_556  A
C337       C1104   1.398       .  A
C337        C344   1.451       .  S
C338        C339   1.424       .  A
C339        C340   1.421   1_565  A
C339        C342   1.448       .  S
C340       C1103   1.411   1_554  A
C340        C343   1.449       .  S
C341        N348   1.158       .  T
C342        N347   1.157       .  T
C343        N345   1.157       .  T
C344        N346   1.156       .  T
C349        C918   1.520   1_554  S
C349        C350   1.419       .  A
C349        C354   1.424       .  A
C350        C351   1.421       .  A
C350        C355   1.452       .  S
C351        C352   1.428       .  A
C351        C358   1.452       .  S
C352        C353   1.422       .  A
C353        C354   1.418       .  A
C353        C356   1.452       .  S
C354       C1125   1.453       .  S
C355        N362   1.158       .  T
C356        N361   1.157       .  T
C357       C1122   1.453       .  S
C357        N359   1.158       .  T
C358        N360   1.158       .  T
C363        C364   1.420       .  A
C363        C368   1.420       .  A
C364        C365   1.411       .  A
C364        C369   1.448       .  S
C365        C366   1.412       .  A
C365        C372   1.453       .  S
C366        C367   1.415       .  A
C367        C368   1.413       .  A
C367        C370   1.449       .  S
C368        C371   1.452       .  S
C369        N376   1.156       .  T
C370        N375   1.156       .  T
C371        N373   1.157       .  T
C372        N374   1.157       .  T
C377        C378   1.410       .  A
C377        C382   1.410       .  A
C378        C379   1.413       .  A
C378        C383   1.450       .  S
C379        C380   1.417       .  A
C379        C386   1.451       .  S
C380        C381   1.416       .  A
C381        C382   1.410       .  A
C381       C1152   1.452   1_554  S
C382        C385   1.451       .  S
C383        N390   1.157       .  T
C384       C1149   1.452       .  S
C384        N389   1.157       .  T
C385       N1155   1.157       .  T
C386        N388   1.157       .  T
N387       C1153   1.157       .  T
C391        C392   1.416       .  A
C391        C396   1.412       .  A
C392        C393   1.423   1_655  A
C392        C397   1.447       .  S
C393        C394   1.414       .  A
C393        C400   1.448       .  S
C394        C395   1.410       .  A
C395        C396   1.394   1_455  A
C395        C398   1.454       .  S
C396        C399   1.452       .  S
C397        N404   1.157       .  T
C398        N403   1.158       .  T
C399        N401   1.157       .  T
C400        N402   1.157       .  T
C405        C406   1.416       .  A
C405        C410   1.414       .  A
C406        C407   1.428       .  A
C406        C411   1.447       .  S
C407        C408   1.416       .  A
C407        C414   1.446       .  S
C408        C409   1.409       .  A
C409        C410   1.406       .  A
C409        C412   1.451       .  S
C410        C413   1.447       .  S
C411        N418   1.157       .  T
C412        N417   1.157       .  T
C413        N415   1.155       .  T
C414        N416   1.157       .  T
C419        C420   1.427       .  A
C419        C424   1.427       .  A
C420        C421   1.416       .  A
C420        C425   1.453       .  S
C421        C422   1.414       .  A
C421        C428   1.452       .  S
C422        C881   1.494       .  S
C422        C423   1.410       .  A
C423        C424   1.411       .  A
C423        C426   1.454       .  S
C424        C427   1.452       .  S
C425        N432   1.158       .  T
C426       N1199   1.157       .  T
C427        N429   1.157       .  T
C428       N1198   1.157       .  T
N430       C1196   1.158   1_554  T
N431       C1194   1.157   1_554  T
C433        C434   1.413       .  A
C433        C438   1.409       .  A
C434        C435   1.423       .  A
C434        C439   1.446       .  S
C435        C436   1.415       .  A
C435        C442   1.447       .  S
C436        C437   1.411       .  A
C437        C438   1.394       .  A
C437        C440   1.452       .  S
C438        C441   1.450       .  S
C439        N446   1.157       .  T
C440        N445   1.158       .  T
C441        N443   1.157       .  T
C442        N444   1.157       .  T
C447        C448   1.415       .  A
C447        C452   1.412       .  A
C448        C449   1.429       .  A
C448        C453   1.447       .  S
C449        C450   1.418       .  A
C449        C456   1.446       .  S
C450        C451   1.410       .  A
C451        C452   1.402       .  A
C451        C454   1.450       .  S
C452        C455   1.449       .  S
C453        N460   1.157       .  T
C454        N459   1.156       .  T
C455        N457   1.156       .  T
C456        N458   1.157       .  T
C461        C462   1.424       .  A
C461        C466   1.425       .  A
C462        C463   1.413       .  A
C462        C467   1.454       .  S
C463        C464   1.420       .  A
C463        C470   1.455       .  S
C464        C465   1.417       .  A
C465        C466   1.415       .  A
C465        C468   1.453       .  S
C466        C469   1.453       .  S
C467        N474   1.158       .  T
C468        N473   1.157       .  T
C469        N471   1.157       .  T
C470        N472   1.158       .  T
C475        C476   1.426       .  A
C475        C480   1.421       .  A
C476        C477   1.416       .  A
C476        C481   1.449       .  S
C477        C478   1.409   1_455  A
C477        C484   1.453       .  S
C478        C479   1.411   1_655  A
C479        C480   1.417       .  A
C479        C482   1.449   1_454  S
C480        C483   1.451   1_554  S
C481        N488   1.157       .  T
C482        N487   1.156       .  T
C483       N1253   1.158       .  T
C484        N486   1.157       .  T
N485       C1251   1.158       .  T
C489        C490   1.412       .  A
C489        C494   1.409       .  A
C490        C491   1.411       .  A
C490        C495   1.446       .  S
C491        C492   1.411       .  A
C491        C498   1.452       .  S
C492        C493   1.417       .  A
C493        C494   1.416       .  A
C493        C496   1.449       .  S
C494        C497   1.450       .  S
C495       N1270   1.155       .  T
C496        N501   1.157       .  T
C497        N499   1.157       .  T
C498        N500   1.157       .  T
N502       C1263   1.155       .  T
C503        C504   1.411       .  A
C503        C508   1.414       .  A
C504        C505   1.416       .  A
C504        C509   1.453       .  S
C505        C506   1.427       .  A
C505        C512   1.452       .  S
C506        C507   1.428       .  A
C507        C508   1.415       .  A
C507       C1278   1.454       .  S
C508       C1279   1.453       .  S
C509        N516   1.157       .  T
C510       C1275   1.454       .  S
C510        N515   1.158       .  T
C511       C1276   1.451       .  S
C511        N513   1.157       .  T
C512        N514   1.158       .  T
C517        C518   1.421       .  A
C517        C522   1.415       .  A
C518        C519   1.419       .  A
C518        C523   1.450       .  S
C519        C520   1.414   1_565  A
C519        C526   1.451       .  S
C520        C521   1.422   1_545  A
C521        C522   1.410       .  A
C521        C524   1.453   1_565  S
C522        C525   1.454       .  S
C523        N530   1.157       .  T
C524        N529   1.157       .  T
C525        N527   1.158       .  T
C526        N528   1.157   1_565  T
C531        C532   1.422       .  A
C531        C536   1.424       .  A
C532        C533   1.420       .  A
C532       C1305   1.449       .  S
C533        C534   1.410       .  A
C533       C1308   1.450       .  S
C534        C535   1.403       .  A
C535        C536   1.404       .  A
C535        C538   1.450       .  S
C536        C539   1.452       .  S
C537       C1300   1.450   1_554  S
C537        N544   1.157       .  T
C538        N543   1.156       .  T
C539        N541   1.157       .  T
C540       C1301   1.450       .  S
C540        N542   1.157       .  T
C545        C546   1.417       .  A
C545        C550   1.417       .  A
C546        C547   1.411       .  A
C546        C551   1.450       .  S
C547        C548   1.416       .  A
C547        C554   1.453       .  S
C548        C549   1.418       .  A
C549        C550   1.414       .  A
C549        C552   1.452       .  S
C550        C553   1.452       .  S
C551        N558   1.156       .  T
C552        N557   1.157       .  T
C553        N555   1.158       .  T
C554        N556   1.158       .  T
C559        C560   1.418       .  A
C559        C564   1.425       .  A
C560        C561   1.422   1_565  A
C560        C565   1.448       .  S
C561        C562   1.413       .  A
C561        C568   1.449       .  S
C562        C563   1.414       .  A
C563        C564   1.404   1_545  A
C563        C566   1.456       .  S
C564        C567   1.456       .  S
C565        N572   1.157       .  T
C566        N571   1.158       .  T
C567        N569   1.158       .  T
C568        N570   1.157       .  T
C573        C574   1.416       .  A
C573        C578   1.420       .  A
C574        C575   1.406       .  A
C574        C579   1.445       .  S
C575        C576   1.412       .  A
C575        C582   1.453       .  S
C576        C577   1.416       .  A
C577        C578   1.420       .  A
C577        C580   1.450       .  S
C578        C581   1.450       .  S
C579        N586   1.155       .  T
C580        N585   1.157       .  T
C581        N583   1.157       .  T
C582        N584   1.158       .  T
C587        C588   1.412       .  A
C587        C592   1.412       .  A
C588        C589   1.412       .  A
C588        C593   1.453       .  S
C589        C590   1.416       .  A
C589        C596   1.450       .  S
C590        C837   1.486   1_554  S
C590        C591   1.413       .  A
C591        C592   1.409       .  A
C591        C594   1.454       .  S
C592        C595   1.449       .  S
C593        N600   1.157       .  T
C594        N599   1.157   1_554  T
C595        N597   1.157       .  T
C596       N1366   1.157       .  T
N598       C1364   1.156       .  T
C601        C602   1.408   1_565  A
C601        C606   1.414   1_565  A
C602        C603   1.416       .  A
C602        C607   1.451       .  S
C603        C604   1.423       .  A
C603        C610   1.451       .  S
C604        C605   1.415       .  A
C605        C606   1.408       .  A
C605        C608   1.451       .  S
C606        C609   1.452   1_545  S
C607        N614   1.157   1_545  T
C608        N613   1.157       .  T
C609        N611   1.157       .  T
C610        N612   1.158       .  T
C615        C616   1.411       .  A
C615        C620   1.416       .  A
C616        C617   1.411       .  A
C616        C621   1.452       .  S
C617        C618   1.418       .  A
C617        C624   1.452       .  S
C618        C619   1.415       .  A
C619        C620   1.413       .  A
C619        C622   1.452       .  S
C620        C623   1.451       .  S
C621        N628   1.157       .  T
C622        N627   1.157       .  T
C623        N625   1.157       .  T
C624        N626   1.157       .  T
C629        C630   1.411       .  A
C629        C634   1.407       .  A
C630        C631   1.404       .  A
C630        C635   1.451       .  S
C631        C632   1.406       .  A
C631        C638   1.451       .  S
C632        C633   1.411       .  A
C633        C634   1.406       .  A
C633        C636   1.451       .  S
C634        C637   1.451       .  S
C635        N642   1.157       .  T
C636        N641   1.157       .  T
C637        N639   1.157       .  T
C638        N640   1.157       .  T
C643        C644   1.416       .  A
C643        C648   1.415       .  A
C644        C645   1.416       .  A
C644        C649   1.451       .  S
C645        C646   1.426       .  A
C645        C652   1.453       .  S
C646        C647   1.419       .  A
C647        C648   1.413       .  A
C647        C650   1.451       .  S
C648        C651   1.450       .  S
C649        N656   1.158       .  T
C650        N655   1.158       .  T
C651        N653   1.157       .  T
C652        N654   1.158       .  T
C657        C658   1.405       .  A
C657        C662   1.415       .  A
C658        C659   1.412       .  A
C658        C663   1.450       .  S
C659        C660   1.415       .  A
C659        C666   1.442       .  S
C660        C661   1.408       .  A
C661        C662   1.413       .  A
C661        C664   1.446       .  S
C662        C665   1.449       .  S
C663        N670   1.157       .  T
C664        N669   1.156       .  T
C665        N667   1.157       .  T
C666        N668   1.155       .  T
C671        C672   1.422       .  A
C671        C676   1.414       .  A
C672        C673   1.413       .  A
C672        C677   1.451       .  S
C673        C674   1.411       .  A
C673        C680   1.452       .  S
C674        C675   1.417       .  A
C675        C676   1.413       .  A
C675        C678   1.451       .  S
C676        C679   1.451       .  S
C677        N684   1.158       .  T
C678        N683   1.157       .  T
C679        N681   1.157       .  T
C680        N682   1.157       .  T
C685        C686   1.421       .  A
C685        C690   1.414       .  A
C686        C687   1.414       .  A
C686        C691   1.452       .  S
C687        C688   1.413       .  A
C687        C694   1.452       .  S
C688        C689   1.420       .  A
C689        C690   1.417       .  A
C689        C692   1.452       .  S
C690        C693   1.450       .  S
C691        N698   1.157       .  T
C692        N697   1.157       .  T
C693        N695   1.157       .  T
C694        N696   1.157       .  T
C699        C700   1.407       .  A
C699        C704   1.409   1_455  A
C700        C701   1.419       .  A
C700        C705   1.448       .  S
C701        C702   1.424   1_455  A
C701        C708   1.449       .  S
C702        C703   1.415       .  A
C703        C704   1.408       .  A
C703        C706   1.452       .  S
C704        C707   1.441       .  S
C705        N712   1.157       .  T
C706        N711   1.157       .  T
C707        N709   1.154       .  T
C708        N710   1.157       .  T
C713        C714   1.422       .  A
C713        C718   1.429       .  A
C714        C715   1.412   1_565  A
C714        C719   1.453       .  S
C715        C716   1.416       .  A
C715        C722   1.454       .  S
C716        C717   1.408   1_545  A
C717        C718   1.418       .  A
C717        C720   1.452   1_565  S
C718        C721   1.450       .  S
C719        N726   1.158       .  T
C720        N725   1.157       .  T
C721        N723   1.157       .  T
C722        N724   1.157       .  T
C727        C728   1.423       .  A
C727        C732   1.412   1_455  A
C728        C729   1.413   1_455  A
C728        C733   1.453       .  S
C729        C730   1.414       .  A
C729        C736   1.453       .  S
C730        C731   1.420       .  A
C731        C732   1.413       .  A
C731        C734   1.448       .  S
C732        C735   1.452   1_655  S
C733        N740   1.158       .  T
C734        N739   1.156       .  T
C735        N737   1.157       .  T
C736        N738   1.157       .  T
C741        C742   1.419       .  A
C741        C746   1.421       .  A
C742        C743   1.415       .  A
C742        C747   1.452       .  S
C743        C744   1.421       .  A
C743        C750   1.452       .  S
C744        C962   1.515       .  S
C744        C745   1.421       .  A
C745        C746   1.418       .  A
C745       C1516   1.453       .  S
C746        C749   1.452       .  S
C747        N754   1.157       .  T
C748       C1513   1.452   1_554  S
C748        N753   1.157       .  T
C749        N751   1.158       .  T
C750        N752   1.158       .  T
C755        C756   1.419       .  A
C755        C760   1.418       .  A
C756        C757   1.412       .  A
C756        C761   1.449       .  S
C757        C758   1.412       .  A
C757        C764   1.452       .  S
C758        C759   1.416       .  A
C759        C760   1.409       .  A
C759        C762   1.452       .  S
C760        C763   1.453       .  S
C761        N768   1.157       .  T
C762        N767   1.158       .  T
C763        N765   1.158       .  T
C764        N766   1.157       .  T
O769       Cr787   2.009       .  S
O769        C777   1.263       .  A
O770       Cr787   1.986       .  S
O770        C771   1.263       .  A
C771        O772   1.264       .  A
C771       C1523   1.499       .  S
O772       Cr788   1.998       .  S
O773       Cr788   1.966       .  S
O773        C774   1.256       .  A
C774        O775   1.273       .  A
C774       C1495   1.500       .  S
O775       Cr789   2.032       .  S
O776       Cr789   1.989       .  S
O776        C777   1.262       .  A
C777       C1456   1.503       .  S
O778       Cr787   1.973       .  S
O778        C786   1.263       .  A
O779       Cr787   2.010       .  S
O779        C780   1.266       .  A
C780        O781   1.264       .  A
C780       C1481   1.516       .  S
O781       Cr788   1.983       .  S
O782       Cr788   2.020       .  S
O782        C783   1.265       .  A
C783        O784   1.262       .  A
C783       C1467   1.494       .  S
O784       Cr789   1.987       .  S
O785       Cr789   2.034       .  S
O785        C786   1.274       .  A
C786       C1509   1.520       .  S
Cr787       O790   1.769       .  S
Cr788       O790   1.769       .  S
Cr789       O790   1.766       .  S
O791       Cr809   2.007       .  S
O791        C799   1.262       .  A
O792       Cr809   1.963       .  S
O792        C793   1.256       .  A
C793        O794   1.268       .  A
C793       C1397   1.468       .  S
O794       Cr810   2.013       .  S
O795       Cr810   1.969       .  S
O795        C796   1.257       .  A
C796        O797   1.273       .  A
C796       C1439   1.507       .  S
O797       Cr811   2.031       .  S
O798       Cr811   1.985       .  S
O798        C799   1.259       .  A
C799       C1383   1.491       .  S
O800       Cr809   1.971       .  S
O800        C808   1.264       .  A
O801       Cr809   2.013       .  S
O801        C802   1.264       .  A
C802        O803   1.265       .  A
C802       C1498   1.503       .  S
O803       Cr810   1.988       .  S
O804       Cr810   2.032       .  S
O804        C805   1.269       .  A
C805        O806   1.262       .  A
C805       C1428   1.498       .  S
O806       Cr811   1.983       .  S
O807       Cr811   2.033       .  S
O807        C808   1.275       .  A
C808       C1411   1.508       .  S
Cr809       O812   1.777       .  S
Cr810       O812   1.770       .  S
Cr811       O812   1.763       .  S
O813       Cr831   2.025       .  S
O813        C821   1.269       .  A
O814       Cr831   1.958       .  S
O814        C815   1.261       .  A
C815        O816   1.273       .  A
C815       C1355   1.474       .  S
O816       Cr832   2.020       .  S
O817       Cr832   1.956       .  S
O817        C818   1.255       .  A
C818        O819   1.267       .  A
C818       C1369   1.480       .  S
O819       Cr833   2.026       .  S
O820       Cr833   1.978       .  S
O820        C821   1.260       .  A
C821       C1316   1.505       .  S
O822       Cr831   1.980       .  S
O822        C830   1.262       .  A
O823       Cr831   2.016       .  S
O823        C824   1.265       .  A
C824        O825   1.267       .  A
C824       C1442   1.501       .  S
O825       Cr832   1.990       .  S
O826       Cr832   2.052       .  S
O826        C827   1.270       .  A
C827        O828   1.249       .  A
C827       C1327   1.504       .  S
O828       Cr833   1.962       .  S
O829       Cr833   2.010       .  S
O829        C830   1.266       .  A
C830       C1341   1.501       .  S
Cr831       O834   1.767       .  S
Cr832       O834   1.775       .  S
Cr833       O834   1.759       .  S
O835       Cr853   2.010       .  S
O835        C843   1.262       .  A
O836       Cr853   1.984       .  S
O836        C837   1.263       .  A
C837        O838   1.267       .  A
O838       Cr854   1.997       .  S
O839       Cr854   1.992       .  S
O839        C840   1.263       .  A
C840        O841   1.264       .  A
C840       C1299   1.506       .  S
O841       Cr855   1.995       .  S
O842       Cr855   1.982       .  S
O842        C843   1.259       .  A
C843       C1274   1.511       .  S
O844       Cr853   1.986       .  S
O844        C852   1.264       .  A
O845       Cr853   2.014       .  S
O845        C846   1.265       .  A
C846        O847   1.264       .  A
C846       C1285   1.501       .  S
O847       Cr854   1.989       .  S
O848       Cr854   2.014       .  S
O848        C849   1.264       .  A
C849        O850   1.264       .  A
C849       C1425   1.495       .  S
O850       Cr855   1.988       .  S
O851       Cr855   2.018       .  S
O851        C852   1.269       .  A
C852       C1344   1.497       .  S
Cr853       O856   1.780       .  S
Cr854       O856   1.773       .  S
Cr855       O856   1.759       .  S
O857       Cr875   1.988   1_556  S
O857        C865   1.256       .  A
O858       Cr875   2.012   1_556  S
O858        C859   1.268       .  A
C859        O860   1.259       .  A
C859       C1232   1.500       .  S
O860       Cr876   1.964   1_556  S
O861       Cr876   2.015   1_556  S
O861        C862   1.267       .  A
C862        O863   1.265       .  A
C862       C1257   1.488       .  S
O864        C865   1.258   1_554  A
C865       C1271   1.493       .  S
O866        C874   1.271       .  A
O867        C868   1.255       .  A
C868        O869   1.271       .  A
C868       C1243   1.511       .  S
O870        C871   1.266       .  A
C871        O872   1.260       .  A
C871       C1201   1.482       .  S
O872       Cr877   1.970       .  S
O873       Cr877   1.969       .  S
O873        C874   1.261       .  A
C874       C1215   1.499       .  S
Cr875       O878   1.787       .  S
Cr876       O878   1.781       .  S
O879       Cr897   1.976       .  S
O879        C887   1.253       .  A
O880       Cr897   2.016       .  S
O880        C881   1.269       .  A
C881        O882   1.261       .  A
O882       Cr898   1.967       .  S
O883       Cr898   1.989       .  S
O883        C884   1.263       .  A
C884        O885   1.271       .  A
C884       C1246   1.487       .  S
O885       Cr899   2.002       .  S
O886       Cr899   2.000       .  S
O886        C887   1.260       .  A
C887       C1145   1.480       .  S
O888       Cr897   2.031       .  S
O888        C896   1.269       .  A
O889       Cr897   1.968       .  S
O889        C890   1.254       .  A
C890        O891   1.263       .  A
C890       C1372   1.490       .  S
O891       Cr898   2.006       .  S
O892       Cr898   2.010       .  S
O892        C893   1.268       .  A
C893        O894   1.257       .  A
C893       C1159   1.486       .  S
O894       Cr899   1.968       .  S
O895       Cr899   1.980       .  S
O895        C896   1.260       .  A
C896       C1173   1.507       .  S
Cr897       O900   1.789       .  S
Cr898       O900   1.779       .  S
Cr899       O900   1.773       .  S
O901       Cr919   2.022       .  S
O901        C909   1.262       .  A
O902       Cr919   1.979       .  S
O902        C903   1.265       .  A
C903        O904   1.270       .  A
C903       C1131   1.503       .  S
O904       Cr920   2.004       .  S
O905       Cr920   1.964       .  S
O905        C906   1.256       .  A
C906        O907   1.269       .  A
C906       C1484   1.488       .  S
O907       Cr921   2.014       .  S
O908       Cr921   1.968       .  S
O908        C909   1.252       .  A
C909       C1092   1.499       .  S
O910       Cr919   1.966       .  S
O910        C918   1.264       .  A
O911       Cr919   2.019       .  S
O911        C912   1.265       .  A
C912        O913   1.262       .  A
C912       C1260   1.489       .  S
O913       Cr920   1.989       .  S
O914       Cr920   2.015       .  S
O914        C915   1.264       .  A
C915        O916   1.256       .  A
C915       C1103   1.485       .  S
O916       Cr921   1.970       .  S
O917       Cr921   2.044       .  S
O917        C918   1.280       .  A
Cr919       O922   1.777       .  S
Cr920       O922   1.773       .  S
Cr921       O922   1.760       .  S
O923       Cr941   2.007       .  S
O923        C931   1.264       .  A
O924       Cr941   1.988       .  S
O924        C925   1.263       .  A
C925        O926   1.268       .  A
C925       C1187   1.515       .  S
O926       Cr942   2.006       .  S
O927       Cr942   1.969       .  S
O927        C928   1.257       .  A
C928        O929   1.273       .  A
C928       C1288   1.511       .  S
O929       Cr943   2.044       .  S
O930       Cr943   1.980       .  S
O930        C931   1.260       .  A
C931       C1089   1.504       .  S
O932       Cr941   1.986       .  S
O932        C940   1.263       .  A
O933       Cr941   2.009       .  S
O933        C934   1.266       .  A
C934        O935   1.265       .  A
C934       C1075   1.495       .  S
O935       Cr942   1.985       .  S
O936       Cr942   2.037       .  S
O936        C937   1.268       .  A
C937        O938   1.256       .  A
C937       C1330   1.496       .  S
O938       Cr943   1.965       .  S
O939       Cr943   2.038       .  S
O939        C940   1.275       .  A
C940       C1176   1.501       .  S
Cr941       O944   1.772       .  S
Cr942       O944   1.767       .  S
Cr943       O944   1.762       .  S
O945       Cr963   2.019       .  S
O945        C953   1.268       .  A
O946       Cr963   1.980       .  S
O946        C947   1.263       .  A
C947        O948   1.266       .  A
C947       C1526   1.491       .  S
O948       Cr964   2.007       .  S
O949       Cr964   1.974       .  S
O949        C950   1.261       .  A
C950        O951   1.267       .  A
C950       C1064   1.488       .  S
O951       Cr965   2.010       .  S
O952       Cr965   1.977       .  S
O952        C953   1.259       .  A
C953       C1313   1.504       .  S
O954       Cr963   1.984       .  S
O954        C962   1.262       .  A
O955       Cr963   2.013       .  S
O955        C956   1.266       .  A
C956        O957   1.261       .  A
C956       C1047   1.479       .  S
O957       Cr964   1.978       .  S
O958       Cr964   2.014       .  S
O958        C959   1.262       .  A
C959        O960   1.261       .  A
C959       C1106   1.502       .  S
O960       Cr965   1.973       .  S
O961       Cr965   2.012       .  S
O961        C962   1.267       .  A
Cr963       O966   1.769       .  S
Cr964       O966   1.772       .  S
Cr965       O966   1.761       .  S
O967       Cr985   2.026       .  S
O967        C975   1.269       .  A
O968       Cr985   1.976       .  S
O968        C969   1.260       .  A
C969        O970   1.265       .  A
C969       C1229   1.510       .  S
O970       Cr986   2.002       .  S
O971       Cr986   1.966       .  S
O971        C972   1.257       .  A
C972        O973   1.270       .  A
C972       C1078   1.499       .  S
O973       Cr987   2.035       .  S
O974       Cr987   1.964       .  S
O974        C975   1.257       .  A
C975       C1453   1.504       .  S
O976       Cr985   1.979       .  S
O976        C984   1.261       .  A
O977       Cr985   2.026       .  S
O977        C978   1.271       .  A
C978        O979   1.259       .  A
C978       C1033   1.498       .  S
O979       Cr986   1.964       .  S
O980       Cr986   2.025       .  S
O980        C981   1.265       .  A
C981        O982   1.255       .  A
C981       C1162   1.478       .  S
O982       Cr987   1.960       .  S
O983       Cr987   2.035       .  S
O983        C984   1.274       .  A
C984       C1218   1.495       .  S
Cr985       O988   1.772       .  S
Cr986       O988   1.767       .  S
Cr987       O988   1.759       .  S
O989      Cr1007   2.019       .  S
O989        C997   1.266       .  A
O990      Cr1007   1.953       .  S
O990        C991   1.253       .  A
C991        O992   1.270       .  A
C991       C1400   1.467       .  S
O992      Cr1008   2.019       .  S
O993      Cr1008   1.972       .  S
O993        C994   1.259       .  A
C994        O995   1.269       .  A
C994       C1050   1.507       .  S
O996        C997   1.257       .  A
C997       C1148   1.492       .  S
O998       C1006   1.259       .  A
O999       C1000   1.266   1_554  A
C1000      C1302   1.484       .  S
O1001     Cr1008   1.974       .  S
O1002      C1003   1.268       .  A
C1003      O1004   1.260       .  A
C1003      C1470   1.497       .  S
O1004     Cr1009   1.963       .  S
O1005     Cr1009   2.034       .  S
O1005      C1006   1.274       .  A
C1006      C1414   1.513       .  S
Cr1007     O1010   1.773       .  S
Cr1008     O1010   1.772       .  S
O1011     Cr1029   2.012       .  S
O1011      C1019   1.264       .  A
O1012     Cr1029   1.973       .  S
O1012      C1013   1.263       .  A
C1013      O1014   1.269       .  A
C1013      C1134   1.491       .  S
O1014     Cr1030   2.014       .  S
O1015     Cr1030   1.978       .  S
O1015      C1016   1.261       .  A
C1016      O1017   1.263       .  A
C1016      C1036   1.492       .  S
O1017     Cr1031   2.008       .  S
O1018     Cr1031   1.974       .  S
O1018      C1019   1.256       .  A
C1019      C1386   1.495       .  S
O1020     Cr1029   1.982       .  S
O1020      C1028   1.263       .  A
O1021     Cr1029   2.003       .  S
O1021      C1022   1.263       .  A
C1022      O1023   1.261       .  A
C1022      C1061   1.476       .  S
O1023     Cr1030   1.980       .  S
O1024     Cr1030   2.017       .  S
O1024      C1025   1.264       .  A
C1025      O1026   1.258       .  A
C1025      C1204   1.483       .  S
O1026     Cr1031   1.975       .  S
O1027     Cr1031   2.030       .  S
O1027      C1028   1.273       .  A
C1028      C1120   1.525       .  S
Cr1029     O1032   1.769       .  S
Cr1030     O1032   1.777       .  S
Cr1031     O1032   1.758       .  S
C1033      C1034   1.419       .  A
C1033      C1038   1.417       .  A
C1034      C1035   1.410       .  A
C1034      C1039   1.453       .  S
C1035      C1036   1.415       .  A
C1035      C1042   1.453       .  S
C1036      C1037   1.416       .  A
C1037      C1038   1.414       .  A
C1037      C1040   1.451       .  S
C1038      C1041   1.452       .  S
C1039      N1046   1.158       .  T
C1040      N1045   1.157       .  T
C1041      N1043   1.157       .  T
C1042      N1044   1.158       .  T
C1047      C1048   1.405       .  A
C1047      C1052   1.405       .  A
C1048      C1049   1.413       .  A
C1048      C1053   1.453       .  S
C1049      C1050   1.427   1_455  A
C1049      C1056   1.449   1_455  S
C1050      C1051   1.426   1_655  A
C1051      C1052   1.410       .  A
C1051      C1054   1.452       .  S
C1052      C1055   1.449       .  S
C1053      N1060   1.157       .  T
C1054      N1059   1.158       .  T
C1055      N1057   1.156       .  T
C1056      N1058   1.157       .  T
C1061      C1062   1.412       .  A
C1061      C1066   1.409       .  A
C1062      C1063   1.410   1_545  A
C1062      C1067   1.451       .  S
C1063      C1064   1.414       .  A
C1063      C1070   1.450       .  S
C1064      C1065   1.417   1_565  A
C1065      C1066   1.408       .  A
C1065      C1068   1.449       .  S
C1066      C1069   1.452       .  S
C1067      N1074   1.157       .  T
C1068      N1073   1.157       .  T
C1069      N1071   1.157       .  T
C1070      N1072   1.157       .  T
C1075      C1076   1.412       .  A
C1075      C1080   1.419       .  A
C1076      C1077   1.412   1_655  A
C1076      C1081   1.453       .  S
C1077      C1078   1.423       .  A
C1077      C1084   1.452       .  S
C1078      C1079   1.415   1_455  A
C1079      C1080   1.415       .  A
C1079      C1082   1.451   1_655  S
C1080      C1083   1.452       .  S
C1081      N1088   1.157       .  T
C1082      N1087   1.157       .  T
C1083      N1085   1.157       .  T
C1084      N1086   1.157       .  T
C1089      C1090   1.419       .  A
C1089      C1094   1.421       .  A
C1090      C1091   1.412       .  A
C1090      C1095   1.453       .  S
C1091      C1092   1.416       .  A
C1091      C1098   1.453       .  S
C1092      C1093   1.416       .  A
C1093      C1094   1.417       .  A
C1093      C1096   1.452       .  S
C1094      C1097   1.451       .  S
C1095      N1102   1.157       .  T
C1096      N1101   1.157       .  T
C1097      N1099   1.157       .  T
C1098      N1100   1.157       .  T
C1103      C1104   1.418   1_545  A
C1104      C1109   1.446       .  S
C1105      C1106   1.405       .  A
C1105      C1112   1.453       .  S
C1106      C1107   1.423       .  A
C1107      C1108   1.423   1_565  A
C1107      C1110   1.448       .  S
C1108      C1111   1.449       .  S
C1109      N1116   1.158       .  T
C1110      N1115   1.157       .  T
C1111      N1113   1.157       .  T
C1112      N1114   1.157       .  T
C1117      C1118   1.420       .  A
C1117      C1122   1.425       .  A
C1118      C1119   1.421       .  A
C1118      C1123   1.452       .  S
C1119      C1120   1.426       .  A
C1119      C1126   1.452       .  S
C1120      C1121   1.422       .  A
C1121      C1122   1.420       .  A
C1121      C1124   1.453       .  S
C1123      N1130   1.157       .  T
C1124      N1129   1.158       .  T
C1125      N1127   1.158   1_554  T
C1126      N1128   1.158       .  T
C1131      C1132   1.420       .  A
C1131      C1136   1.420       .  A
C1132      C1133   1.409       .  A
C1132      C1137   1.447       .  S
C1133      C1134   1.411       .  A
C1133      C1140   1.454       .  S
C1134      C1135   1.416       .  A
C1135      C1136   1.413       .  A
C1135      C1138   1.448       .  S
C1136      C1139   1.453       .  S
C1137      N1144   1.156       .  T
C1138      N1143   1.156       .  T
C1139      N1141   1.158       .  T
C1140      N1142   1.157       .  T
C1145      C1146   1.408       .  A
C1145      C1150   1.409       .  A
C1146      C1147   1.413       .  A
C1146      C1151   1.450       .  S
C1147      C1148   1.418       .  A
C1147      C1154   1.450       .  S
C1148      C1149   1.417       .  A
C1149      C1150   1.411       .  A
C1150      C1153   1.451       .  S
C1151      N1158   1.157       .  T
C1152      N1157   1.157       .  T
C1154      N1156   1.157       .  T
C1159      C1160   1.416       .  A
C1159      C1164   1.413       .  A
C1160      C1161   1.423   1_655  A
C1160      C1165   1.447       .  S
C1161      C1162   1.413       .  A
C1161      C1168   1.448       .  S
C1162      C1163   1.409       .  A
C1163      C1164   1.393   1_455  A
C1163      C1166   1.454       .  S
C1164      C1167   1.452       .  S
C1165      N1172   1.157       .  T
C1166      N1171   1.158       .  T
C1167      N1169   1.157       .  T
C1168      N1170   1.157       .  T
C1173      C1174   1.417       .  A
C1173      C1178   1.415       .  A
C1174      C1175   1.430       .  A
C1174      C1179   1.447       .  S
C1175      C1176   1.417       .  A
C1175      C1182   1.447       .  S
C1176      C1177   1.409       .  A
C1177      C1178   1.407       .  A
C1177      C1180   1.452       .  S
C1178      C1181   1.446       .  S
C1179      N1186   1.157       .  T
C1180      N1185   1.157       .  T
C1181      N1183   1.155       .  T
C1182      N1184   1.157       .  T
C1187      C1188   1.427       .  A
C1187      C1192   1.425       .  A
C1188      C1189   1.418       .  A
C1188      C1193   1.452       .  S
C1189      C1190   1.414       .  A
C1189      C1196   1.452       .  S
C1190      C1191   1.412       .  A
C1191      C1192   1.410       .  A
C1191      C1194   1.455       .  S
C1192      C1195   1.452       .  S
C1193      N1200   1.157       .  T
C1195      N1197   1.158       .  T
C1201      C1202   1.415       .  A
C1201      C1206   1.408       .  A
C1202      C1203   1.424       .  A
C1202      C1207   1.447       .  S
C1203      C1204   1.414       .  A
C1203      C1210   1.447       .  S
C1204      C1205   1.411       .  A
C1205      C1206   1.394       .  A
C1205      C1208   1.451       .  S
C1206      C1209   1.450       .  S
C1207      N1214   1.157       .  T
C1208      N1213   1.158       .  T
C1209      N1211   1.156       .  T
C1210      N1212   1.157       .  T
C1215      C1216   1.416       .  A
C1215      C1220   1.411       .  A
C1216      C1217   1.429       .  A
C1216      C1221   1.448       .  S
C1217      C1218   1.418       .  A
C1217      C1224   1.447       .  S
C1218      C1219   1.409       .  A
C1219      C1220   1.401       .  A
C1219      C1222   1.450       .  S
C1220      C1223   1.449       .  S
C1221      N1228   1.157       .  T
C1222      N1227   1.156       .  T
C1223      N1225   1.156       .  T
C1224      N1226   1.157       .  T
C1229      C1230   1.424       .  A
C1229      C1234   1.425       .  A
C1230      C1231   1.411       .  A
C1230      C1235   1.454       .  S
C1231      C1232   1.417       .  A
C1231      C1238   1.454       .  S
C1232      C1233   1.417       .  A
C1233      C1234   1.414       .  A
C1233      C1236   1.453       .  S
C1234      C1237   1.453       .  S
C1235      N1242   1.158       .  T
C1236      N1241   1.157       .  T
C1237      N1239   1.158       .  T
C1238      N1240   1.157       .  T
C1243      C1244   1.426       .  A
C1243      C1248   1.421       .  A
C1244      C1245   1.415       .  A
C1244      C1249   1.450       .  S
C1245      C1246   1.408   1_455  A
C1245      C1252   1.453       .  S
C1246      C1247   1.411   1_655  A
C1247      C1248   1.416       .  A
C1247      C1250   1.451   1_455  S
C1248      C1251   1.451       .  S
C1249      N1256   1.157       .  T
C1250      N1255   1.157       .  T
C1252      N1254   1.157       .  T
C1257      C1258   1.411       .  A
C1257      C1262   1.409       .  A
C1258      C1259   1.411       .  A
C1258      C1263   1.444   1_556  S
C1259      C1260   1.410       .  A
C1259      C1266   1.452   1_556  S
C1260      C1261   1.417       .  A
C1261      C1262   1.417       .  A
C1261      C1264   1.449       .  S
C1262      C1265   1.449       .  S
C1264      N1269   1.157       .  T
C1265      N1267   1.157       .  T
C1266      N1268   1.157       .  T
C1271      C1272   1.410       .  A
C1271      C1276   1.414       .  A
C1272      C1273   1.416       .  A
C1272      C1277   1.452       .  S
C1273      C1274   1.426       .  A
C1273      C1280   1.451       .  S
C1274      C1275   1.422       .  A
C1275      C1276   1.413       .  A
C1277      N1284   1.157       .  T
C1278      N1283   1.158       .  T
C1279      N1281   1.157       .  T
C1280      N1282   1.158       .  T
C1285      C1286   1.417       .  A
C1285      C1290   1.411       .  A
C1286      C1287   1.419       .  A
C1286      C1291   1.449       .  S
C1287      C1288   1.418   1_565  A
C1287      C1294   1.451       .  S
C1288      C1289   1.426       .  A
C1289      C1290   1.413   1_545  A
C1289      C1292   1.451       .  S
C1290      C1293   1.454       .  S
C1291      N1298   1.157       .  T
C1292      N1297   1.157       .  T
C1293      N1295   1.157       .  T
C1294      N1296   1.157       .  T
C1299      C1300   1.422       .  A
C1299      C1304   1.424       .  A
C1300      C1301   1.420   1_556  A
C1301      C1302   1.410   1_554  A
C1302      C1303   1.403       .  A
C1303      C1304   1.406       .  A
C1303      C1306   1.449       .  S
C1304      C1307   1.451       .  S
C1305      N1312   1.157       .  T
C1306      N1311   1.156       .  T
C1307      N1309   1.157       .  T
C1308      N1310   1.157       .  T
C1313      C1314   1.418       .  A
C1313      C1318   1.418       .  A
C1314      C1315   1.415       .  A
C1314      C1319   1.451       .  S
C1315      C1316   1.418       .  A
C1315      C1322   1.453       .  S
C1316      C1317   1.420       .  A
C1317      C1318   1.418       .  A
C1317      C1320   1.452       .  S
C1318      C1321   1.452       .  S
C1319      N1326   1.157       .  T
C1320      N1325   1.158       .  T
C1321      N1323   1.158       .  T
C1322      N1324   1.157       .  T
C1327      C1328   1.417       .  A
C1327      C1332   1.424       .  A
C1328      C1329   1.424   1_565  A
C1328      C1333   1.448       .  S
C1329      C1330   1.415       .  A
C1329      C1336   1.449       .  S
C1330      C1331   1.416       .  A
C1331      C1332   1.405   1_545  A
C1331      C1334   1.456       .  S
C1332      C1335   1.456       .  S
C1333      N1340   1.157       .  T
C1334      N1339   1.158       .  T
C1335      N1337   1.158       .  T
C1336      N1338   1.157       .  T
C1341      C1342   1.416       .  A
C1341      C1346   1.419       .  A
C1342      C1343   1.405       .  A
C1342      C1347   1.446       .  S
C1343      C1344   1.411       .  A
C1343      C1350   1.453       .  S
C1344      C1345   1.416       .  A
C1345      C1346   1.421       .  A
C1345      C1348   1.449       .  S
C1346      C1349   1.450       .  S
C1347      N1354   1.155       .  T
C1348      N1353   1.157       .  T
C1349      N1351   1.158       .  T
C1350      N1352   1.158       .  T
C1355      C1356   1.410       .  A
C1355      C1360   1.412       .  A
C1356      C1357   1.407       .  A
C1356      C1361   1.453       .  S
C1357      C1358   1.414       .  A
C1357      C1364   1.449       .  S
C1358      C1359   1.413       .  A
C1359      C1360   1.409       .  A
C1359      C1362   1.454       .  S
C1360      C1363   1.449       .  S
C1361      N1368   1.157       .  T
C1362      N1367   1.158       .  T
C1363      N1365   1.157       .  T
C1369      C1370   1.408   1_565  A
C1369      C1374   1.413   1_565  A
C1370      C1371   1.414       .  A
C1370      C1375   1.450   1_545  S
C1371      C1372   1.420       .  A
C1371      C1378   1.451       .  S
C1372      C1373   1.413       .  A
C1373      C1374   1.408       .  A
C1373      C1376   1.451       .  S
C1374      C1377   1.452   1_545  S
C1375      N1382   1.157       .  T
C1376      N1381   1.157       .  T
C1377      N1379   1.157       .  T
C1378      N1380   1.157       .  T
C1383      C1384   1.412       .  A
C1383      C1388   1.416       .  A
C1384      C1385   1.413       .  A
C1384      C1389   1.452       .  S
C1385      C1386   1.418       .  A
C1385      C1392   1.452       .  S
C1386      C1387   1.415       .  A
C1387      C1388   1.414       .  A
C1387      C1390   1.452       .  S
C1388      C1391   1.451       .  S
C1389      N1396   1.157       .  T
C1390      N1395   1.158       .  T
C1391      N1393   1.157       .  T
C1392      N1394   1.157       .  T
C1397      C1398   1.412       .  A
C1397      C1402   1.408       .  A
C1398      C1399   1.406       .  A
C1398      C1403   1.450       .  S
C1399      C1400   1.406       .  A
C1399      C1406   1.450       .  S
C1400      C1401   1.411       .  A
C1401      C1402   1.408       .  A
C1401      C1404   1.451       .  S
C1402      C1405   1.450       .  S
C1403      N1410   1.157       .  T
C1404      N1409   1.157       .  T
C1405      N1407   1.157       .  T
C1406      N1408   1.157       .  T
C1411      C1412   1.416       .  A
C1411      C1416   1.417       .  A
C1412      C1413   1.415       .  A
C1412      C1417   1.451       .  S
C1413      C1414   1.425       .  A
C1413      C1420   1.453       .  S
C1414      C1415   1.418       .  A
C1415      C1416   1.415       .  A
C1415      C1418   1.451       .  S
C1416      C1419   1.449       .  S
C1417      N1424   1.157       .  T
C1418      N1423   1.158       .  T
C1419      N1421   1.157       .  T
C1420      N1422   1.158       .  T
C1425      C1426   1.406       .  A
C1425      C1430   1.414       .  A
C1426      C1427   1.415       .  A
C1426      C1431   1.449       .  S
C1427      C1428   1.415       .  A
C1427      C1434   1.442       .  S
C1428      C1429   1.409       .  A
C1429      C1430   1.416       .  A
C1429      C1432   1.444       .  S
C1430      C1433   1.448       .  S
C1431      N1438   1.157       .  T
C1432      N1437   1.155       .  T
C1433      N1435   1.157       .  T
C1434      N1436   1.155       .  T
C1439      C1440   1.424       .  A
C1439      C1444   1.415       .  A
C1440      C1441   1.416       .  A
C1440      C1445   1.452       .  S
C1441      C1442   1.411       .  A
C1441      C1448   1.452       .  S
C1442      C1443   1.418       .  A
C1443      C1444   1.416       .  A
C1443      C1446   1.450       .  S
C1444      C1447   1.451       .  S
C1445      N1452   1.158       .  T
C1446      N1451   1.157       .  T
C1447      N1449   1.157       .  T
C1448      N1450   1.157       .  T
C1453      C1454   1.420       .  A
C1453      C1458   1.416       .  A
C1454      C1455   1.412       .  A
C1454      C1459   1.453       .  S
C1455      C1456   1.414       .  A
C1455      C1462   1.452       .  S
C1456      C1457   1.421       .  A
C1457      C1458   1.419       .  A
C1457      C1460   1.452       .  S
C1458      C1461   1.450       .  S
C1459      N1466   1.157       .  T
C1460      N1465   1.158       .  T
C1461      N1463   1.157       .  T
C1462      N1464   1.157       .  T
C1467      C1468   1.408       .  A
C1467      C1472   1.410   1_455  A
C1468      C1469   1.418       .  A
C1468      C1473   1.448       .  S
C1469      C1470   1.423   1_455  A
C1469      C1476   1.448       .  S
C1470      C1471   1.413       .  A
C1471      C1472   1.406       .  A
C1471      C1474   1.452       .  S
C1472      C1475   1.441       .  S
C1473      N1480   1.157       .  T
C1474      N1479   1.157       .  T
C1475      N1477   1.154       .  T
C1476      N1478   1.157   1_556  T
C1481      C1482   1.423       .  A
C1481      C1486   1.432       .  A
C1482      C1483   1.412   1_565  A
C1482      C1487   1.453       .  S
C1483      C1484   1.414       .  A
C1483      C1490   1.453       .  S
C1484      C1485   1.404   1_545  A
C1485      C1486   1.417       .  A
C1485      C1488   1.452   1_565  S
C1486      C1489   1.451       .  S
C1487      N1494   1.158       .  T
C1488      N1493   1.157       .  T
C1489      N1491   1.158       .  T
C1490      N1492   1.157       .  T
C1495      C1496   1.423       .  A
C1495      C1500   1.412   1_455  A
C1496      C1497   1.413   1_455  A
C1496      C1501   1.453       .  S
C1497      C1498   1.415       .  A
C1497      C1504   1.453       .  S
C1498      C1499   1.421       .  A
C1499      C1500   1.416       .  A
C1499      C1502   1.448       .  S
C1500      C1503   1.452   1_655  S
C1501      N1508   1.158       .  T
C1502      N1507   1.156       .  T
C1503      N1505   1.158       .  T
C1504      N1506   1.157       .  T
C1509      C1510   1.423       .  A
C1509      C1514   1.423       .  A
C1510      C1511   1.416       .  A
C1510      C1515   1.454       .  S
C1511      C1512   1.422       .  A
C1511      C1518   1.453       .  S
C1512      C1513   1.419       .  A
C1513      C1514   1.420       .  A
C1514      C1517   1.451       .  S
C1515      N1522   1.158       .  T
C1516      N1521   1.158       .  T
C1517      N1519   1.158       .  T
C1518      N1520   1.158       .  T
C1523      C1524   1.418       .  A
C1523      C1528   1.420       .  A
C1524      C1525   1.410       .  A
C1524      C1529   1.449       .  S
C1525      C1526   1.412       .  A
C1525      C1532   1.452       .  S
C1526      C1527   1.417       .  A
C1527      C1528   1.413       .  A
C1527      C1530   1.453       .  S
C1528      C1531   1.453       .  S
C1529      N1536   1.156       .  T
C1530      N1535   1.158       .  T
C1531      N1533   1.158       .  T
C1532      N1534   1.157       .  T
