geometry optimzed in LAMMPS
_audit_creation_date              2020-12-01 
_audit_creation_method            'lammps2cif' 
_symmetry_space_group_name_H-M    'P1' 
_symmetry_Int_Tables_number       1 
_symmetry_cell_setting            triclinic 
loop_ 
_symmetry_equiv_pos_as_xyz 
  x,y,z 
_cell_length_a                    48.92989806 
_cell_length_b                    48.99696283499602 
_cell_length_c                    28.799154442630453 
_cell_angle_alpha                 89.96347891787931 
_cell_angle_beta                  89.85685859605287 
_cell_angle_gamma                 90.15896691927517 
loop_ 
_atom_site_label 
_atom_site_type_symbol 
_atom_site_fract_x 
_atom_site_fract_y 
_atom_site_fract_z 
_atom_site_charge 
O1          O  0.59565745  0.68758158  0.88769281    -0.80500
C2          C  0.56661660  0.72397774  0.06697409     0.98800
O3          O  0.59099543  0.72080364  0.05267896    -0.69700
O4          O  0.60685587  0.67325301  0.01955310    -0.73200
Al5        Al  0.60627435  0.70897917  0.99345309     1.49000
C6          C  0.60495801  0.65141685  0.99686869     0.94100
O7          O  0.53998459  0.66282573  0.96780520    -0.79500
O8          O  0.54357753  0.73659045  0.90966538    -0.73000
Al9        Al  0.56824290  0.67629528  0.92915102     1.90100
O10         O  0.51801092  0.70179428  0.97289215    -0.72100
O11         O  0.56972634  0.76069635  0.98151078    -0.71900
O12         O  0.54683948  0.72370443  0.03910090    -0.77600
O13         O  0.61111115  0.74500713  0.97196706    -0.75800
O14         O  0.57395364  0.70480066  0.96607950    -1.11900
O15         O  0.62725579  0.69815273  0.93878922    -0.71100
C16         C  0.62021033  0.69310437  0.89713486     0.99600
C17         C  0.51847583  0.67600931  0.97697098     0.96000
Al18       Al  0.54691934  0.72874320  0.97477320     1.55600
O19         O  0.59252967  0.65139260  0.95872389    -0.75800
C20         C  0.59514572  0.76468525  0.97798606     1.00100
C21         C  0.53804330  0.71831469  0.88011528     0.95000
O22         O  0.54286678  0.69361740  0.88903827    -0.81100
O23         O  0.71131115  0.57899711  0.66608508    -0.80500
C24         C  0.74569083  0.54109108  0.49181775     0.98800
O25         O  0.74263251  0.56607437  0.50202757    -0.69700
O26         O  0.69558299  0.58405419  0.53379129    -0.73200
Al27       Al  0.73174475  0.58437412  0.55861547     1.49000
C28         C  0.67394135  0.58301413  0.55737411     0.94100
O29         O  0.68502897  0.52031954  0.59461495    -0.79500
O30         O  0.75922127  0.52574026  0.65134747    -0.73000
Al31       Al  0.69924312  0.54996080  0.62911486     1.90100
O32         O  0.72357020  0.49753861  0.59227091    -0.72100
O33         O  0.78354435  0.54800048  0.57570437    -0.71900
O34         O  0.74596035  0.52285007  0.52250058    -0.77600
O35         O  0.76833617  0.58990246  0.57745737    -0.75800
O36         O  0.72757853  0.55360292  0.59094940    -1.11900
O37         O  0.72157190  0.60804159  0.61024541    -0.71100
C38         C  0.71657731  0.60300231  0.65280157     0.99600
C39         C  0.69772451  0.49824407  0.58787867     0.96000
Al40       Al  0.75117748  0.52598336  0.58609748     1.55600
O41         O  0.67446087  0.57291885  0.59738356    -0.75800
C42         C  0.78790483  0.57342496  0.57455516     1.00100
C43         C  0.74085170  0.52152615  0.68147493     0.95000
O44         O  0.71624526  0.52626090  0.67194687    -0.81100
O45         O  0.56692364  0.27128211  0.37455577    -0.80500
C46         C  0.57256347  0.24876252  0.56779817     0.98800
O47         O  0.55920542  0.23626350  0.53713485    -0.69700
O48         O  0.52667063  0.26854671  0.49022017    -0.73200
Al49       Al  0.55325453  0.24180455  0.47291282     1.49000
C50         C  0.52071267  0.29031127  0.46899056     0.94100
O51         O  0.58204941  0.32213483  0.46995518    -0.79500
O52         O  0.63352330  0.26410534  0.44288849    -0.73000
Al53       Al  0.57476233  0.29457532  0.42538134     1.90100
O54         O  0.61627758  0.30263812  0.50557346    -0.72100
O55         O  0.61249138  0.22562685  0.49657483    -0.71900
O56         O  0.59200602  0.26445652  0.55626027    -0.77600
O57         O  0.57659919  0.21155674  0.45759643    -0.75800
O58         O  0.57967571  0.26690102  0.46512577    -1.11900
O59         O  0.54074805  0.24183643  0.41024857    -0.71100
C60         C  0.54873483  0.25306302  0.37325666     0.99600
C61         C  0.60272880  0.32369129  0.49576549     0.96000
Al62       Al  0.61077866  0.26437404  0.49751158     1.55600
O63         O  0.53690520  0.29984184  0.43888310    -0.75800
C64         C  0.59938408  0.20683091  0.47664168     1.00100
C65         C  0.63249850  0.28139518  0.41035650     0.95000
O66         O  0.61140027  0.29556103  0.40388430    -0.81100
O67         O  0.72098143  0.43191921  0.18103700    -0.80500
C68         C  0.74675717  0.42789154  0.98999883     0.98800
O69         O  0.76001567  0.44008506  0.02125078    -0.69700
O70         O  0.72816461  0.47304563  0.06750808    -0.73200
Al71       Al  0.75371919  0.44570724  0.08542237     1.49000
C72         C  0.70593222  0.47921683  0.08705757     0.94100
O73         O  0.67332183  0.41870902  0.08036653    -0.79500
O74         O  0.73154062  0.36714577  0.11347323    -0.73000
Al75       Al  0.69924528  0.42488099  0.12815896     1.90100
O76         O  0.69289266  0.38298889  0.04984523    -0.72100
O77         O  0.76961239  0.38753528  0.05844385    -0.71900
O78         O  0.73076837  0.40842193  0.00038547    -0.77600
O79         O  0.78305738  0.42165376  0.10198439    -0.75800
O80         O  0.72800769  0.41994463  0.09085252    -1.11900
O81         O  0.75245015  0.45721414  0.14818403    -0.71100
C82         C  0.73985109  0.44934957  0.18394889     0.99600
C83         C  0.67208142  0.39767922  0.05542493     0.96000
Al84       Al  0.73095558  0.38910957  0.05833104     1.55600
O85         O  0.69497420  0.46286301  0.11546600    -0.75800
C86         C  0.78809425  0.39978498  0.08045538     1.00100
C87         C  0.71379589  0.36800248  0.14545413     0.95000
O88         O  0.69750575  0.38785993  0.14892814    -0.81100
O89         O  0.41937862  0.28547013  0.89157697    -0.80500
C90         C  0.45731445  0.24984500  0.06509518     0.98800
O91         O  0.43232186  0.25205462  0.05416501    -0.69700
O92         O  0.41558281  0.29999312  0.02509042    -0.73200
Al93       Al  0.41435280  0.26465774  0.99807259     1.49000
C94         C  0.41647200  0.32215895  0.00310865     0.94100
O95         O  0.47782176  0.31208430  0.96136043    -0.79500
O96         O  0.47358347  0.23789571  0.90604536    -0.73000
Al97       Al  0.44825385  0.29772657  0.92793790     1.90100
O98         O  0.50118272  0.27394751  0.96438641    -0.72100
O99         O  0.45074494  0.21372299  0.98141660    -0.71900
O100        O  0.47585742  0.25170128  0.03492410    -0.77600
O101        O  0.40884888  0.22894144  0.97593371    -0.75800
O102        O  0.44512080  0.26937177  0.96592038    -1.11900
O103        O  0.39037337  0.27597065  0.94767770    -0.71100
C104        C  0.39548903  0.27995520  0.90490898     0.99600
C105        C  0.50016519  0.29982370  0.96714311     0.96000
Al106      Al  0.47293825  0.24616293  0.97106231     1.55600
O107        O  0.42525338  0.32236542  0.96191564    -0.75800
C108        C  0.42522067  0.20943477  0.98034839     1.00100
C109        C  0.47770066  0.25599570  0.87549394     0.95000
O110        O  0.47189019  0.28057708  0.88394154    -0.81100
O111        O  0.31414276  0.39525984  0.66782966    -0.80500
C112        C  0.27135050  0.42595377  0.49507640     0.98800
O113        O  0.27519125  0.40165512  0.50836161    -0.69700
O114        O  0.32321073  0.38500563  0.53582499    -0.73200
Al115      Al  0.28841387  0.38602002  0.56515281     1.49000
C116        C  0.34604488  0.38800930  0.55499275     0.94100
O117        O  0.33568276  0.45305561  0.58958922    -0.79500
O118        O  0.26385514  0.44836364  0.65402228    -0.73000
Al119      Al  0.32358851  0.42366217  0.62713530     1.90100
O120        O  0.29632244  0.47444295  0.58764726    -0.72100
O121        O  0.23687673  0.42243331  0.58454849    -0.71900
O122        O  0.27172509  0.44567706  0.52309259    -0.77600
O123        O  0.25296030  0.38109217  0.58937398    -0.75800
O124        O  0.29369784  0.41822417  0.59306728    -1.11900
O125        O  0.30056119  0.36458680  0.61719199    -0.71100
C126        C  0.30735312  0.37107813  0.65814727     0.99600
C127        C  0.32215767  0.47463971  0.58314605     0.96000
Al128      Al  0.26927484  0.44527266  0.58796109     1.55600
O129        O  0.34778190  0.40064638  0.59286111    -0.75800
C130        C  0.23293577  0.39696379  0.58692526     1.00100
C131        C  0.28318121  0.45410719  0.68147824     0.95000
O132        O  0.30736640  0.44797685  0.67063522    -0.81100
O133        O  0.45949434  0.70159675  0.38010978    -0.80500
C134        C  0.44653755  0.72513933  0.57099031     0.98800
O135        O  0.46092993  0.73826108  0.54209555    -0.69700
O136        O  0.49499135  0.70588577  0.49740077    -0.73200
Al137      Al  0.46913006  0.73285790  0.47790369     1.49000
C138        C  0.50043636  0.68336814  0.47811882     0.94100
O139        O  0.43719208  0.65283088  0.47422443    -0.79500
O140        O  0.39021276  0.71352499  0.44089951    -0.73000
Al141      Al  0.44786773  0.67984909  0.43022002     1.90100
O142        O  0.40217172  0.67355526  0.50443728    -0.72100
O143        O  0.41014188  0.75004489  0.49853341    -0.71900
O144        O  0.42732321  0.70977244  0.55745578    -0.77600
O145        O  0.44661258  0.76357001  0.46051121    -0.75800
O146        O  0.44251891  0.70806491  0.46836281    -1.11900
O147        O  0.48393807  0.73238899  0.41572415    -0.71100
C148        C  0.47795948  0.71943797  0.37922812     0.99600
C149        C  0.41541185  0.65199117  0.49743354     0.96000
Al150      Al  0.41037131  0.71145297  0.49778191     1.55600
O151        O  0.48427339  0.67305375  0.44898642    -0.75800
C152        C  0.42357240  0.76864112  0.47865442     1.00100
C153        C  0.39281148  0.69791757  0.40621216     0.95000
O154        O  0.41263927  0.68157961  0.40316365    -0.81100
O155        O  0.30072771  0.52399900  0.18488130    -0.80500
C156        C  0.27586151  0.53609774  0.00176692     0.98800
O157        O  0.27640639  0.51823449  0.03308873    -0.69700
O158        O  0.29562571  0.49343753  0.10598241    -0.73200
Al159      Al  0.26850704  0.52178134  0.09596268     1.49000
C160        C  0.32156210  0.49399596  0.10469597     0.94100
O161        O  0.34457431  0.56894630  0.10841581    -0.79500
O162        O  0.29804222  0.60477400  0.12007100    -0.73000
Al163      Al  0.31930478  0.54672010  0.14165703     1.90100
O164        O  0.32330620  0.57976735  0.04454672    -0.72100
O165        O  0.25112199  0.58544832  0.08968866    -0.71900
O166        O  0.27622038  0.56134309  0.01230960    -0.77600
O167        O  0.23631321  0.54357918  0.08216902    -0.75800
O168        O  0.29168470  0.54971467  0.10221884    -1.11900
O169        O  0.25844417  0.52191811  0.16001348    -0.71100
C170        C  0.27594662  0.51796176  0.19151644     0.99600
C171        C  0.34486418  0.57895382  0.06818060     0.96000
Al172      Al  0.28741727  0.58024226  0.06939897     1.55600
O173        O  0.33403749  0.51634510  0.10996516    -0.75800
C174        C  0.23176551  0.56898809  0.08351975     1.00100
C175        C  0.30301567  0.60036901  0.16278491     0.95000
O176        O  0.30726349  0.57642082  0.17691910    -0.81100
O177        O  0.09575837  0.19176346  0.38422321    -0.80500
C178        C  0.06539161  0.22719951  0.56272659     0.98800
O179        O  0.08993583  0.22409140  0.54930613    -0.69700
O180        O  0.10552013  0.17549282  0.51713098    -0.73200
Al181      Al  0.10556941  0.21134696  0.49076100     1.49000
C182        C  0.10448742  0.15373309  0.49387034     0.94100
O183        O  0.04086978  0.16413849  0.46243153    -0.79500
O184        O  0.04314157  0.23872664  0.40619563    -0.73000
Al185      Al  0.06871080  0.17884310  0.42466148     1.90100
O186        O  0.01770030  0.20244764  0.46837276    -0.72100
O187        O  0.06902144  0.26284523  0.47907220    -0.71900
O188        O  0.04586968  0.22460638  0.53481121    -0.77600
O189        O  0.11037116  0.24719575  0.46881919    -0.75800
O190        O  0.07359073  0.20698090  0.46251414    -1.11900
O191        O  0.12714606  0.20038028  0.43675808    -0.71100
C192        C  0.12026383  0.19689971  0.39454163     0.99600
C193        C  0.01884529  0.17652858  0.47116650     0.96000
Al194      Al  0.04627676  0.23032348  0.47112317     1.55600
O195        O  0.09372638  0.15413426  0.45413361    -0.75800
C196        C  0.09455787  0.26691968  0.47585367     1.00100
C197        C  0.03632779  0.22041490  0.37757200     0.95000
O198        O  0.04246328  0.19582780  0.38506566    -0.81100
O199        O  0.20813008  0.07837954  0.16552476    -0.80500
C200        C  0.24821622  0.04318187  0.99282137     0.98800
O201        O  0.24464987  0.06790811  0.00404721    -0.69700
O202        O  0.19648264  0.08356171  0.03199148    -0.73200
Al203      Al  0.23148668  0.08506711  0.06000686     1.49000
C204        C  0.17426764  0.08232898  0.05378275     0.94100
O205        O  0.18610414  0.01907150  0.09095006    -0.79500
O206        O  0.25860625  0.02643298  0.15251588    -0.73000
Al207      Al  0.19827458  0.04904175  0.12702222     1.90100
O208        O  0.22562579  0.99773052  0.09093738    -0.72100
O209        O  0.28391199  0.05055098  0.07989196    -0.71900
O210        O  0.24860004  0.02446319  0.02267481    -0.77600
O211        O  0.26691621  0.09170399  0.08263603    -0.75800
O212        O  0.22747676  0.05389271  0.09112941    -1.11900
O213        O  0.21886318  0.10788979  0.11076609    -0.71100
C214        C  0.21290727  0.10260437  0.15280250     0.99600
C215        C  0.19987151  0.99752361  0.08548672     0.96000
Al216      Al  0.25218835  0.02716704  0.08702985     1.55600
O217        O  0.17363716  0.07151097  0.09333345    -0.75800
C218        C  0.28722303  0.07614344  0.08081629     1.00100
C219        C  0.23979869  0.02100419  0.18125257     0.95000
O220        O  0.21522513  0.02561984  0.17095115    -0.81100
O221        O  0.06351120  0.77359840  0.87984470    -0.80500
C222        C  0.07859642  0.74709250  0.06840002     0.98800
O223        O  0.06304233  0.73522598  0.03979366    -0.69700
O224        O  0.02805401  0.76629640  0.99572571    -0.73200
Al225      Al  0.05472212  0.74004862  0.97598456     1.49000
C226        C  0.02262474  0.78931851  0.97846105     0.94100
O227        O  0.08568058  0.81979339  0.97753696    -0.79500
O228        O  0.13265555  0.75989894  0.93423285    -0.73000
Al229      Al  0.07515999  0.79424983  0.93098911     1.90100
O230        O  0.12255091  0.79878216  0.99973584    -0.72100
O231        O  0.11444924  0.72259770  0.99344292    -0.71900
O232        O  0.09838174  0.76176588  0.05435348    -0.77600
O233        O  0.07703664  0.70924820  0.95882565    -0.75800
O234        O  0.08117159  0.76500075  0.96647751    -1.11900
O235        O  0.04090106  0.74054724  0.91365950    -0.71100
C236        C  0.04666540  0.75421989  0.87772307     0.99600
C237        C  0.10881998  0.82032383  0.99633271     0.96000
Al238      Al  0.11401992  0.76106270  0.99313630     1.55600
O239        O  0.03903958  0.80028812  0.95055361    -0.75800
C240        C  0.10015901  0.70396842  0.97600989     1.00100
C241        C  0.12987149  0.77738809  0.90215419     0.95000
O242        O  0.11026717  0.79408975  0.90279049    -0.81100
O243        O  0.22692936  0.93825810  0.68153511    -0.80500
C244        C  0.24854153  0.92804837  0.48925076     0.98800
O245        O  0.26107494  0.94273931  0.51812648    -0.69700
O246        O  0.22909808  0.97599004  0.56477821    -0.73200
Al247      Al  0.25646977  0.94996249  0.58222336     1.49000
C248        C  0.20692097  0.98163967  0.58520245     0.94100
O249        O  0.17662681  0.91845825  0.58774560    -0.79500
O250        O  0.23692333  0.87027822  0.61860250    -0.73000
Al251      Al  0.20405009  0.92818632  0.63168646     1.90100
O252        O  0.19750646  0.88379672  0.55633842    -0.72100
O253        O  0.27364027  0.89081875  0.56124127    -0.71900
O254        O  0.23365735  0.90842715  0.50273823    -0.77600
O255        O  0.28773718  0.92762708  0.59723908    -0.75800
O256        O  0.23194704  0.92314195  0.59229221    -1.11900
O257        O  0.25684064  0.96342277  0.64426324    -0.71100
C258        C  0.24543975  0.95606963  0.68147427     0.99600
C259        C  0.17591714  0.89678107  0.56428522     0.96000
Al260      Al  0.23519191  0.89124726  0.56234057     1.55600
O261        O  0.19725814  0.96537811  0.61505068    -0.75800
C262        C  0.29255954  0.90457929  0.57920113     1.00100
C263        C  0.22067358  0.87210204  0.65268480     0.95000
O264        O  0.20506720  0.89239905  0.65699691    -0.81100
O265        O  0.92994327  0.78003571  0.38846015    -0.80500
C266        C  0.95900443  0.74255344  0.56647380     0.98800
O267        O  0.93477356  0.74640343  0.55270137    -0.69700
O268        O  0.92000019  0.79442811  0.52183977    -0.73200
Al269      Al  0.91965412  0.75878057  0.49459588     1.49000
C270        C  0.92071967  0.81600237  0.49824975     0.94100
O271        O  0.98467571  0.80533213  0.46890824    -0.79500
O272        O  0.98364034  0.73258038  0.40824054    -0.73000
Al273      Al  0.95708318  0.79169731  0.42995850     1.90100
O274        O  0.00752756  0.76672054  0.47501093    -0.72100
O275        O  0.95597121  0.70664045  0.47738044    -0.71900
O276        O  0.97870668  0.74191106  0.53847157    -0.77600
O277        O  0.91431677  0.72279032  0.47267647    -0.75800
O278        O  0.95183529  0.76282819  0.46638055    -1.11900
O279        O  0.89844679  0.77071118  0.44086174    -0.71100
C280        C  0.90516022  0.77626916  0.39913414     0.99600
C281        C  0.00636143  0.79259262  0.47848741     0.96000
Al282      Al  0.97905189  0.73887838  0.47388171     1.55600
O283        O  0.93207542  0.81606300  0.45912595    -0.75800
C284        C  0.93038084  0.70285875  0.47540319     1.00100
C285        C  0.98945985  0.75161244  0.38020287     0.95000
O286        O  0.98326070  0.77578374  0.39007624    -0.81100
O287        O  0.81250355  0.89665013  0.16434269    -0.80500
C288        C  0.77423102  0.92620353  0.98684731     0.98800
O289        O  0.77821830  0.90188741  0.00036774    -0.69700
O290        O  0.82654810  0.88717686  0.03155981    -0.73200
Al291      Al  0.79107682  0.88656335  0.05853200     1.49000
C292        C  0.84839262  0.88931042  0.05414034     0.94100
O293        O  0.83633728  0.95324987  0.08521789    -0.79500
O294        O  0.76294363  0.94837254  0.14432515    -0.73000
Al295      Al  0.82333183  0.92459497  0.12339688     1.90100
O296        O  0.79711960  0.97473394  0.08049220    -0.72100
O297        O  0.73848572  0.92172200  0.07395962    -0.71900
O298        O  0.77447280  0.94577637  0.01503285    -0.77600
O299        O  0.75543269  0.88072236  0.08075377    -0.75800
O300        O  0.79473898  0.91870668  0.08677858    -1.11900
O301        O  0.80305869  0.86532157  0.11203243    -0.71100
C302        C  0.80804939  0.87202420  0.15385324     0.99600
C303        C  0.82301520  0.97468164  0.07635926     0.96000
Al304      Al  0.77025269  0.94531452  0.07929850     1.55600
O305        O  0.84839185  0.90106231  0.09289051    -0.75800
C306        C  0.73513164  0.89616109  0.07696817     1.00100
C307        C  0.78133061  0.95425363  0.17333464     0.95000
O308        O  0.80600831  0.94947254  0.16416433    -0.81100
O309        O  0.97419430  0.20063225  0.87628014    -0.80500
C310        C  0.95586125  0.22126292  0.05915081     0.98800
O311        O  0.97436532  0.22342470  0.02902555    -0.69700
O312        O  0.00211029  0.20687113  0.95761060    -0.73200
Al313      Al  0.97188431  0.23177480  0.96624386     1.49000
C314        C  0.00295520  0.18102504  0.95889596     0.94100
O315        O  0.92988714  0.15261022  0.94704265    -0.79500
O316        O  0.89167097  0.19763161  0.93515525    -0.73000
Al317      Al  0.95147615  0.18010517  0.91712575     1.90100
O318        O  0.91627844  0.17184747  0.01091192    -0.72100
O319        O  0.90693919  0.24467245  0.97102532    -0.71900
O320        O  0.93096164  0.21894530  0.04715046    -0.77600
O321        O  0.94781256  0.26203581  0.97936335    -0.75800
O322        O  0.94563287  0.20686323  0.95730569    -1.11900
O323        O  0.97284500  0.24263802  0.90244230    -0.71100
C324        C  0.97843908  0.22581819  0.87054639     0.99600
C325        C  0.91885898  0.15076871  0.98643783     0.96000
Al326      Al  0.91413939  0.20827084  0.98840295     1.55600
O327        O  0.98166008  0.16722816  0.95100319    -0.75800
C328        C  0.92218080  0.26493746  0.97785509     1.00100
C329        C  0.89756030  0.19365417  0.89260469     0.95000
O330        O  0.92208615  0.19075383  0.88016997    -0.81100
O331        O  0.80223401  0.01631924  0.66483401    -0.80500
C332        C  0.77234076  0.03726081  0.48609601     0.98800
O333        O  0.77150745  0.01794396  0.51493608    -0.69700
O334        O  0.79332759  0.98947070  0.58288963    -0.73200
Al335      Al  0.76692491  0.01936082  0.57945351     1.49000
C336        C  0.81932858  0.98900543  0.58053256     0.94100
O337        O  0.84598524  0.06278725  0.59234328    -0.79500
O338        O  0.80107325  0.09939902  0.60856033    -0.73000
Al339      Al  0.82019651  0.04016475  0.62338015     1.90100
O340        O  0.82500378  0.07592665  0.52995107    -0.72100
O341        O  0.75342950  0.08427354  0.57700095    -0.71900
O342        O  0.77669580  0.06159264  0.49892392    -0.77600
O343        O  0.73556574  0.04344474  0.57209779    -0.75800
O344        O  0.79194162  0.04577585  0.58601097    -1.11900
O345        O  0.75921042  0.01727589  0.64506284    -0.71100
C346        C  0.77757903  0.01172579  0.67441973     0.99600
C347        C  0.84668550  0.07381764  0.55300240     0.96000
Al348      Al  0.78922205  0.07751670  0.55613080     1.55600
O349        O  0.83286563  0.01063637  0.58725134    -0.75800
C350        C  0.73279140  0.06914090  0.57331610     1.00100
C351        C  0.80556440  0.09335619  0.65076496     0.95000
O352        O  0.80967008  0.06890541  0.66258056    -0.81100
C353        C  0.82021931  0.16141317  0.70864376     0.13900
C354        C  0.82350284  0.15323928  0.75520277     0.00900
C355        C  0.81622847  0.12648140  0.76784197     0.15900
C356        C  0.80819858  0.10764997  0.73416525     0.25300
C357        C  0.80784868  0.11493803  0.68677837    -0.41100
C358        C  0.81266485  0.14240032  0.67461973     0.32300
C359        C  0.83943541  0.17022458  0.78833823     0.01000
F360        F  0.81933954  0.11770598  0.81224237    -0.13400
F361        F  0.81204923  0.15051188  0.62954266    -0.13900
C362        C  0.83045955  0.17459181  0.83427074     0.15900
C363        C  0.84867789  0.18425808  0.86821686     0.25300
C364        C  0.87607913  0.19002696  0.85649656    -0.41000
C365        C  0.88388794  0.18845368  0.80934323     0.32200
C366        C  0.86602399  0.17826587  0.77601269     0.14000
F367        F  0.80447747  0.16807317  0.84676111    -0.13400
F368        F  0.90956074  0.19506354  0.79548982    -0.13900
F369        F  0.83993814  0.18619610  0.91285141    -0.16200
F370        F  0.87574556  0.17388226  0.73242704    -0.14700
F371        F  0.82612909  0.18741614  0.69563009    -0.14700
F372        F  0.80230597  0.08176918  0.74793169    -0.16100
C373        C  0.87742354  0.09796065  0.05384181     0.13900
C374        C  0.88141745  0.07429821  0.02713822     0.00900
C375        C  0.89929082  0.07543621  0.98891128     0.15900
C376        C  0.91229733  0.09994846  0.97677397     0.25300
C377        C  0.90760885  0.12402935  0.00252879    -0.41100
C378        C  0.89031988  0.12253280  0.04176029     0.32300
C379        C  0.86651671  0.04864520  0.03871772     0.01000
F380        F  0.90343012  0.05298179  0.96221502    -0.13400
F381        F  0.88514902  0.14499666  0.06788256    -0.13900
C382        C  0.83779976  0.04824036  0.04042705     0.15900
C383        C  0.82365611  0.02430823  0.05224269     0.25300
C384        C  0.83794089  0.00005517  0.06246850    -0.41000
C385        C  0.86680853  0.00050507  0.06003265     0.32200
C386        C  0.88085219  0.02451037  0.04834222     0.14000
F387        F  0.82335509  0.07105338  0.03001864    -0.13400
F388        F  0.88168718  0.97782385  0.06947035    -0.13900
F389        F  0.79593302  0.02505746  0.05368066    -0.16200
F390        F  0.90860037  0.02431812  0.04747912    -0.14700
F391        F  0.86086012  0.09729370  0.09172680    -0.14700
F392        F  0.92910328  0.10008221  0.93917861    -0.16100
C393        C  0.78198664  0.93100055  0.85638498     0.13900
C394        C  0.76410952  0.95268211  0.84640316     0.00900
C395        C  0.74752474  0.96324429  0.88171468     0.15900
C396        C  0.74986443  0.95342522  0.92701157     0.25300
C397        C  0.76872637  0.93266622  0.93771255    -0.41100
C398        C  0.78408873  0.92083342  0.90177192     0.32300
C399        C  0.76644023  0.96774499  0.80217126     0.01000
F400        F  0.73061679  0.98456621  0.87299315    -0.13400
F401        F  0.80268650  0.90109625  0.91123181    -0.13900
C402        C  0.74567849  0.96709523  0.76850938     0.15900
C403        C  0.74836599  0.98232857  0.72733199     0.25300
C404        C  0.77172610  0.99863898  0.71985826    -0.41000
C405        C  0.79173781  0.00007771  0.75507760     0.32200
C406        C  0.78920805  0.98460586  0.79536332     0.14000
F407        F  0.72318124  0.95129351  0.77516208    -0.13400
F408        F  0.81409649  0.01638247  0.75055493    -0.13900
F409        F  0.72872458  0.98032139  0.69430857    -0.16200
F410        F  0.80902209  0.98626927  0.82821838    -0.14700
F411        F  0.79854984  0.92086031  0.82271042    -0.14700
F412        F  0.73448041  0.96506973  0.96092448    -0.16100
C413        C  0.74785724  0.00118329  0.37843290     0.13900
C414        C  0.76521939  0.01230025  0.34460810     0.00900
C415        C  0.78293633  0.03381906  0.35632964     0.15900
C416        C  0.78417210  0.04326447  0.40214015     0.25300
C417        C  0.76807767  0.03083994  0.43671823    -0.41100
C418        C  0.74932184  0.01029097  0.42423118     0.32300
C419        C  0.76855515  0.99782970  0.30027361     0.01000
F420        F  0.80019057  0.04445045  0.32401144    -0.13400
F421        F  0.73305125  0.99836096  0.45673537    -0.13900
C422        C  0.75035925  0.00162462  0.26323107     0.15900
C423        C  0.75362586  0.98665498  0.22207652     0.25300
C424        C  0.77509157  0.96772129  0.21790662    -0.41000
C425        C  0.79282341  0.96370001  0.25576326     0.32200
C426        C  0.78959719  0.97867662  0.29639818     0.14000
F427        F  0.72985516  0.02011823  0.26670715    -0.13400
F428        F  0.81344826  0.94524313  0.25347363    -0.13900
F429        F  0.73664374  0.99151300  0.18581630    -0.16200
F430        F  0.80701774  0.97442115  0.33232651    -0.14700
F431        F  0.73088960  0.98015085  0.36766800    -0.14700
F432        F  0.80258480  0.06295850  0.41334512    -0.16100
C433        C  0.87392133  0.79381844  0.28282028     0.13900
C434        C  0.84686722  0.80024269  0.29505263     0.00900
C435        C  0.83808882  0.79526037  0.34090530     0.15900
C436        C  0.85653021  0.78575006  0.37450061     0.25300
C437        C  0.88409348  0.78087237  0.36273260    -0.41100
C438        C  0.89217663  0.78399682  0.31595511     0.32300
C439        C  0.82961228  0.81544253  0.26128452     0.01000
F440        F  0.81191404  0.80062496  0.35362478    -0.13400
F441        F  0.91827577  0.77893486  0.30235448    -0.13900
C442        C  0.82674050  0.80616959  0.21525310     0.15900
C443        C  0.81762502  0.82386867  0.18028379     0.25300
C444        C  0.81086458  0.85108022  0.19096609    -0.41000
C445        C  0.81042239  0.85909987  0.23800796     0.32200
C446        C  0.81998627  0.84160761  0.27267041     0.14000
F447        F  0.83449966  0.78047056  0.20365521    -0.13400
F448        F  0.80222330  0.88454635  0.25035861    -0.13900
F449        F  0.81750089  0.81493882  0.13567347    -0.16200
F450        F  0.82212077  0.85126899  0.31669886    -0.14700
F451        F  0.88343698  0.79905739  0.23936582    -0.14700
F452        F  0.84772821  0.78294796  0.41899711    -0.16100
C453        C  0.87724067  0.93767142  0.56534441     0.13900
C454        C  0.86301234  0.91365192  0.55425452     0.00900
C455        C  0.83427999  0.91422111  0.55309460     0.15900
C456        C  0.82002729  0.93850696  0.56167870     0.25300
C457        C  0.83423685  0.96290922  0.57162199    -0.41100
C458        C  0.86310791  0.96197661  0.57400334     0.32300
C459        C  0.87806987  0.88848331  0.54091040     0.01000
F460        F  0.81997062  0.89111142  0.54359930    -0.13400
F461        F  0.87791822  0.98459504  0.58460572    -0.13900
C462        C  0.89658617  0.87582426  0.57153052     0.15900
C463        C  0.91046158  0.85198416  0.55818194     0.25300
C464        C  0.90635627  0.84083011  0.51381553    -0.41000
C465        C  0.88825337  0.85376038  0.48308065     0.32200
C466        C  0.87417437  0.87722698  0.49654286     0.14000
F467        F  0.90104125  0.88641049  0.61440519    -0.13400
F468        F  0.88379319  0.84329710  0.44007734    -0.13900
F469        F  0.92845027  0.84027707  0.58792313    -0.16200
F470        F  0.85701507  0.88929547  0.46580802    -0.14700
F471        F  0.90498555  0.93784115  0.56637686    -0.14700
F472        F  0.79230869  0.93801436  0.55989735    -0.16100
C473        C  0.07247252  0.81414644  0.53669216     0.13900
C474        C  0.07720405  0.83954937  0.51546395     0.00900
C475        C  0.05875055  0.84936092  0.48239744     0.15900
C476        C  0.03568047  0.83405385  0.47067574     0.25300
C477        C  0.03083211  0.80848872  0.49159479    -0.41100
C478        C  0.04947155  0.79859483  0.52466243     0.32300
C479        C  0.10191325  0.85550655  0.52643013     0.01000
F480        F  0.06330621  0.87368300  0.46108236    -0.13400
F481        F  0.04511368  0.77423724  0.54598772    -0.13900
C482        C  0.12570693  0.85184873  0.50005749     0.15900
C483        C  0.14943312  0.86641855  0.51081147     0.25300
C484        C  0.14970991  0.88499504  0.54823590    -0.41000
C485        C  0.12544171  0.88928818  0.57357928     0.32200
C486        C  0.10173274  0.87456090  0.56275667     0.14000
F487        F  0.12604700  0.83373651  0.46438396    -0.13400
F488        F  0.12501909  0.90657104  0.61039807    -0.13900
F489        F  0.17227390  0.86198575  0.48502063    -0.16200
F490        F  0.07874619  0.87838246  0.58840060    -0.14700
F491        F  0.09019617  0.80444891  0.56889404    -0.14700
F492        F  0.01849326  0.84388836  0.43774998    -0.16100
C493        C  0.92340943  0.87224614  0.04247583     0.13900
C494        C  0.92229760  0.84750347  0.01808356     0.00900
C495        C  0.89707137  0.83784774  0.00173953     0.15900
C496        C  0.87303559  0.85231293  0.01104600     0.25300
C497        C  0.87391545  0.87650284  0.03741540    -0.41100
C498        C  0.89943004  0.88657864  0.05229750     0.32300
C499        C  0.94767604  0.83229421  0.00840682     0.01000
F500        F  0.89575410  0.81429674  0.97703116    -0.13400
F501        F  0.90115082  0.91021693  0.07674465    -0.13900
C502        C  0.95414945  0.80850910  0.03326393     0.15900
C503        C  0.97853567  0.79444674  0.02408916     0.25300
C504        C  0.99677469  0.80398656  0.98964276    -0.41000
C505        C  0.98991443  0.82800922  0.96495594     0.32200
C506        C  0.96572110  0.84194062  0.97443692     0.14000
F507        F  0.93699266  0.79916819  0.06685922    -0.13400
F508        F  0.00640926  0.83811823  0.93103981    -0.13900
F509        F  0.98430066  0.77172575  0.04917935    -0.16200
F510        F  0.95971210  0.86485966  0.94999241    -0.14700
F511        F  0.94772935  0.88221497  0.05759570    -0.14700
F512        F  0.84883136  0.84194795  0.99616925    -0.16100
C513        C  0.15649766  0.79419945  0.78287998     0.13900
C514        C  0.18463149  0.79713180  0.79095421     0.00900
C515        C  0.19528668  0.78916882  0.83431625     0.15900
C516        C  0.17773413  0.78018362  0.86999884     0.25300
C517        C  0.14932962  0.77955098  0.86287088    -0.41100
C518        C  0.13906242  0.78559602  0.81842688     0.32300
C519        C  0.20115374  0.81321073  0.75723761     0.01000
F520        F  0.22244308  0.79164154  0.84287898    -0.13400
F521        F  0.11177378  0.78474806  0.81014404    -0.13900
C522        C  0.20945559  0.83968325  0.76958611     0.15900
C523        C  0.21790502  0.85820840  0.73552406     0.25300
C524        C  0.21877449  0.85054261  0.68850774    -0.41000
C525        C  0.21274585  0.82338785  0.67646517     0.32200
C526        C  0.20377011  0.80487391  0.71061506     0.14000
F527        F  0.20674821  0.84849597  0.81405887    -0.13400
F528        F  0.21291236  0.81557477  0.63124880    -0.13900
F529        F  0.22343864  0.88432662  0.74809924    -0.16200
F530        F  0.19581296  0.77941440  0.69777760    -0.14700
F531        F  0.14550080  0.80213689  0.74178308    -0.14700
F532        F  0.18821337  0.77446745  0.91248899    -0.16100
C533        C  0.01787061  0.76478622  0.26008682     0.13900
C534        C  0.03682382  0.74365435  0.25476755     0.00900
C535        C  0.03918315  0.72379965  0.28985653     0.15900
C536        C  0.02315400  0.72553207  0.33035934     0.25300
C537        C  0.00436494  0.74702337  0.33592544    -0.41100
C538        C  0.00177524  0.76642856  0.29993392     0.32300
C539        C  0.05223298  0.74165661  0.21060930     0.01000
F540        F  0.05736682  0.70310182  0.28519650    -0.13400
F541        F  0.98352129  0.78718819  0.30312549    -0.13900
C542        C  0.07037316  0.76252313  0.19692237     0.15900
C543        C  0.08049990  0.76353506  0.15133362     0.25300
C544        C  0.07235073  0.74380744  0.11861568    -0.41000
C545        C  0.05552206  0.72198552  0.13354904     0.32200
C546        C  0.04557935  0.72100626  0.17899742     0.14000
F547        F  0.07719109  0.78265212  0.22716342    -0.13400
F548        F  0.04763844  0.70204693  0.10366533    -0.13900
F549        F  0.09673670  0.78477662  0.13855806    -0.16200
F550        F  0.02775916  0.70092501  0.19116991    -0.14700
F551        F  0.01455423  0.78367341  0.22602103    -0.14700
F552        F  0.02677328  0.70688969  0.36466064    -0.16100
C553        C  0.02192186  0.76311778  0.75386127     0.13900
C554        C  0.00248457  0.74222435  0.74995396     0.00900
C555        C  0.99837055  0.72423390  0.78725292     0.15900
C556        C  0.01314663  0.72753068  0.82855985     0.25300
C557        C  0.03252893  0.74879903  0.83293392    -0.41100
C558        C  0.03672741  0.76647324  0.79474190     0.32300
C559        C  0.98701015  0.73940209  0.70627197     0.01000
F560        F  0.97956892  0.70390227  0.78400400    -0.13400
F561        F  0.05460616  0.78766147  0.79700121    -0.13900
C562        C  0.99285816  0.71786702  0.67578842     0.15900
C563        C  0.98221956  0.71799181  0.63078451     0.25300
C564        C  0.96516389  0.73937488  0.61607204    -0.41000
C565        C  0.95794779  0.76000181  0.64749890     0.32200
C566        C  0.96900874  0.76014500  0.69224924     0.14000
F567        F  0.01042882  0.69781618  0.68850664    -0.13400
F568        F  0.94219705  0.78123631  0.63354017    -0.13900
F569        F  0.98957222  0.69790915  0.60081007    -0.16200
F570        F  0.96338759  0.78130498  0.72111624    -0.14700
F571        F  0.02657722  0.78040486  0.71778133    -0.14700
F572        F  0.00798576  0.71025671  0.86441647    -0.16100
C573        C  0.16116425  0.87570981  0.01721373     0.13900
C574        C  0.14555054  0.89611599  0.03882160     0.00900
C575        C  0.11747530  0.89149802  0.04653703     0.15900
C576        C  0.10526358  0.86687399  0.03271028     0.25300
C577        C  0.12107205  0.84636055  0.01174193    -0.41100
C578        C  0.14910794  0.85106076  0.00405285     0.32300
C579        C  0.15869113  0.92226580  0.05237263     0.01000
F580        F  0.10200756  0.91066219  0.06811623    -0.13400
F581        F  0.16469578  0.83214858  0.98200504    -0.13900
C582        C  0.14918726  0.94716841  0.03439548     0.15900
C583        C  0.16244554  0.97167980  0.04540988     0.25300
C584        C  0.18570644  0.97167797  0.07406572    -0.41000
C585        C  0.19513372  0.94676023  0.09220293     0.32200
C586        C  0.18163471  0.92232595  0.08171855     0.14000
F587        F  0.12759614  0.94764765  0.00488646    -0.13400
F588        F  0.21704052  0.94611083  0.12104507    -0.13900
F589        F  0.15308694  0.99531908  0.02673699    -0.16200
F590        F  0.19082704  0.89867402  0.10060508    -0.14700
F591        F  0.18802978  0.87996623  0.00761790    -0.14700
F592        F  0.07819069  0.86285093  0.04068375    -0.16100
C593        C  0.10137462  0.10775160  0.04483060     0.13900
C594        C  0.10258364  0.12408023  0.00489072     0.00900
C595        C  0.12702045  0.12561162  0.97942406     0.15900
C596        C  0.15012158  0.11117784  0.99406586     0.25300
C597        C  0.14916162  0.09510109  0.03477069    -0.41100
C598        C  0.12429970  0.09334240  0.05959216     0.32300
C599        C  0.07794821  0.13897143  0.98984880     0.01000
F600        F  0.12845125  0.14100574  0.94026780    -0.13400
F601        F  0.12210144  0.07807133  0.09879489    -0.13900
C602        C  0.07734960  0.16761458  0.98973591     0.15900
C603        C  0.05311035  0.18144461  0.97932857     0.25300
C604        C  0.02903181  0.16674471  0.96880774    -0.41000
C605        C  0.03008930  0.13796453  0.96802723     0.32200
C606        C  0.05427834  0.12432823  0.97839084     0.14000
F607        F  0.09999920  0.18216503  0.00125824    -0.13400
F608        F  0.00768240  0.12276186  0.95765075    -0.13900
F609        F  0.05322309  0.20915434  0.98042077    -0.16200
F610        F  0.05457705  0.09661974  0.97759188    -0.14700
F611        F  0.07800677  0.10628590  0.07028834    -0.14700
F612        F  0.17349176  0.11345918  0.96882934    -0.16100
C613        C  0.25264534  0.01252651  0.76878855     0.13900
C614        C  0.25644249  0.99782855  0.81012702     0.00900
C615        C  0.25908635  0.96925326  0.80833457     0.15900
C616        C  0.25668934  0.95551820  0.76598164     0.25300
C617        C  0.25200520  0.97020758  0.72494357    -0.41100
C618        C  0.25049573  0.99881667  0.72647684     0.32300
C619        C  0.25561777  0.01204901  0.85533329     0.01000
F620        F  0.26265974  0.95456961  0.84785409    -0.13400
F621        F  0.24508599  0.01334272  0.68739511    -0.13900
C622        C  0.23202079  0.02645653  0.86868662     0.15900
C623        C  0.23027163  0.03824300  0.91277835     0.25300
C624        C  0.25191632  0.03542442  0.94416328    -0.41000
C625        C  0.27567532  0.02149246  0.93064068     0.32200
C626        C  0.27764990  0.01011695  0.88630643     0.14000
F627        F  0.21009117  0.02775368  0.83997268    -0.13400
F628        F  0.29667770  0.01836383  0.96087878    -0.13900
F629        F  0.20674698  0.05068826  0.92602474    -0.16200
F630        F  0.30082940  0.99677983  0.87387671    -0.14700
F631        F  0.25026249  0.04012475  0.76964566    -0.14700
F632        F  0.25855176  0.92789742  0.76507417    -0.16100
C633        C  0.27499336  0.96125084  0.37967846     0.13900
C634        C  0.25211753  0.95927181  0.35059841     0.00900
C635        C  0.22957572  0.94339284  0.36491492     0.15900
C636        C  0.22903441  0.93148408  0.40909179     0.25300
C637        C  0.25108771  0.93523366  0.43956906    -0.41100
C638        C  0.27455121  0.94924170  0.42367491     0.32300
C639        C  0.25045225  0.97609639  0.30791724     0.01000
F640        F  0.20751939  0.94049157  0.33681430    -0.13400
F641        F  0.29672676  0.95229206  0.45150560    -0.13900
C642        C  0.27004004  0.97394928  0.27224877     0.15900
C643        C  0.26760976  0.98969161  0.23175344     0.25300
C644        C  0.24545896  0.00768532  0.22634213    -0.41000
C645        C  0.22653750  0.01047962  0.26299740     0.32200
C646        C  0.22911155  0.99498116  0.30332023     0.14000
F647        F  0.29089898  0.95586804  0.27586847    -0.13400
F648        F  0.20518740  0.02803200  0.25966529    -0.13900
F649        F  0.28603185  0.98620567  0.19695198    -0.16200
F650        F  0.21063553  0.99843702  0.33809703    -0.14700
F651        F  0.29703833  0.97639633  0.36683557    -0.14700
F652        F  0.20615130  0.91807563  0.42319135    -0.16100
C653        C  0.96784178  0.11806646  0.47716913     0.13900
C654        C  0.94649114  0.12976897  0.50274520     0.00900
C655        C  0.94911500  0.15666253  0.51895717     0.15900
C656        C  0.97268406  0.17189809  0.50904182     0.25300
C657        C  0.99405533  0.16039126  0.48278177    -0.41100
C658        C  0.99141154  0.13320054  0.46716469     0.32300
C659        C  0.92148751  0.11386196  0.51281636     0.01000
F660        F  0.92894441  0.16799781  0.54496180    -0.13400
F661        F  0.01130955  0.12140184  0.44112917    -0.13900
C662        C  0.92160509  0.09393858  0.54771365     0.15900
C663        C  0.89757652  0.07996766  0.55924498     0.25300
C664        C  0.87285058  0.08571212  0.53596312    -0.41000
C665        C  0.87319992  0.10492024  0.49945718     0.32200
C666        C  0.89731743  0.11894035  0.48821667     0.14000
F667        F  0.94486646  0.08864394  0.57167434    -0.13400
F668        F  0.85004249  0.11100834  0.47579057    -0.13900
F669        F  0.89851128  0.06121195  0.59394787    -0.16200
F670        F  0.89703264  0.13784950  0.45374603    -0.14700
F671        F  0.96564859  0.09205545  0.46132887    -0.14700
F672        F  0.97482033  0.19766641  0.52598232    -0.16100
C673        C  0.06218589  0.22959480  0.69438503     0.13900
C674        C  0.03749689  0.24382154  0.70068082     0.00900
C675        C  0.02469850  0.25573329  0.66233330     0.15900
C676        C  0.03500127  0.25159073  0.61785597     0.25300
C677        C  0.05835257  0.23526354  0.61072662    -0.41100
C678        C  0.07270489  0.22545208  0.64948103     0.32300
C679        C  0.02187801  0.24136815  0.74436479     0.01000
F680        F  0.00094715  0.26968403  0.66774207    -0.13400
F681        F  0.09553870  0.21014378  0.64374242    -0.13900
C682        C  0.02900771  0.25585760  0.78465692     0.15900
C683        C  0.01360857  0.25251757  0.82556628     0.25300
C684        C  0.99125644  0.23434953  0.82645107    -0.41000
C685        C  0.98398042  0.22050125  0.78557024     0.32200
C686        C  0.99899154  0.22410463  0.74498494     0.14000
F687        F  0.05101834  0.27277290  0.78449553    -0.13400
F688        F  0.96278802  0.20261422  0.78528796    -0.13900
F689        F  0.02154498  0.26559843  0.86483760    -0.16200
F690        F  0.99171983  0.20993668  0.70637688    -0.14700
F691        F  0.07484423  0.21793410  0.73125368    -0.14700
F692        F  0.02130270  0.26262301  0.58143168    -0.16100
C693        C  0.95529980  0.23189839  0.19036989     0.13900
C694        C  0.98304151  0.22779357  0.20109959     0.00900
C695        C  0.00109661  0.21997661  0.16571004     0.15900
C696        C  0.99193771  0.21707573  0.12019525     0.25300
C697        C  0.96433490  0.22208653  0.10867819    -0.41100
C698        C  0.94599499  0.22912517  0.14446992     0.32300
C699        C  0.99334215  0.22986361  0.24936886     0.01000
F700        F  0.02767706  0.21451629  0.17546687    -0.13400
F701        F  0.91928878  0.23398858  0.13498929    -0.13900
C702        C  0.98409226  0.21133857  0.28310282     0.15900
C703        C  0.99724282  0.20962924  0.32599496     0.25300
C704        C  0.01980497  0.22649168  0.33606491    -0.41000
C705        C  0.02789703  0.24637399  0.30371024     0.32200
C706        C  0.01485254  0.24792018  0.26042761     0.14000
F707        F  0.96357652  0.19354826  0.27330383    -0.13400
F708        F  0.04959151  0.26286807  0.31261474    -0.13900
F709        F  0.98855929  0.19071558  0.35727527    -0.16200
F710        F  0.02397826  0.26618697  0.22844387    -0.14700
F711        F  0.93735005  0.23903540  0.22422397    -0.14700
F712        F  0.01026704  0.20902550  0.08746202    -0.16100
C713        C  0.20019535  0.13794849  0.26739377     0.13900
C714        C  0.19352896  0.16450131  0.25307106     0.00900
C715        C  0.19720877  0.17174381  0.20619348     0.15900
C716        C  0.20530063  0.15208283  0.17356336     0.25300
C717        C  0.20978623  0.12484215  0.18744514    -0.41100
C718        C  0.20832867  0.11839700  0.23511236     0.32300
C719        C  0.17765060  0.18195194  0.28530822     0.01000
F720        F  0.19136962  0.19742974  0.19161437    -0.13400
F721        F  0.21326104  0.09267648  0.25051619    -0.13900
C722        C  0.18731027  0.18750294  0.33031447     0.15900
C723        C  0.16904010  0.19484282  0.36574484     0.25300
C724        C  0.14084843  0.19668559  0.35645774    -0.41000
C725        C  0.13205264  0.19496860  0.30985059     0.32200
C726        C  0.15023776  0.18748501  0.27479264     0.14000
F727        F  0.21407006  0.18363866  0.34069929    -0.13400
F728        F  0.10538225  0.19851838  0.29836533    -0.13900
F729        F  0.17870727  0.19806971  0.40953765    -0.16200
F730        F  0.14029161  0.18270235  0.23155225    -0.14700
F731        F  0.19634583  0.13012179  0.31219830    -0.14700
F732        F  0.20678844  0.15932262  0.12811212    -0.16100
C733        C  0.18324223  0.04677748  0.52409828     0.13900
C734        C  0.16184305  0.05561826  0.55308914     0.00900
C735        C  0.15590182  0.04056115  0.59339382     0.15900
C736        C  0.17062449  0.01679294  0.60398751     0.25300
C737        C  0.19184915  0.00750381  0.57452114    -0.41100
C738        C  0.19814210  0.02312042  0.53469734     0.32300
C739        C  0.14538438  0.08011248  0.54032906     0.01000
F740        F  0.13532585  0.04851554  0.62202902    -0.13400
F741        F  0.21841913  0.01532525  0.50535621    -0.13900
C742        C  0.13017682  0.08026950  0.49904252     0.15900
C743        C  0.11609074  0.10372140  0.48495141     0.25300
C744        C  0.11700337  0.12788658  0.51173047    -0.41000
C745        C  0.13130909  0.12724394  0.55428076     0.32200
C746        C  0.14527578  0.10360664  0.56838845     0.14000
F747        F  0.12899940  0.05754962  0.47213736    -0.13400
F748        F  0.13239006  0.14965268  0.58192743    -0.13900
F749        F  0.10187661  0.10270622  0.44455482    -0.16200
F750        F  0.15950820  0.10399317  0.60878384    -0.14700
F751        F  0.18980961  0.06123054  0.48539035    -0.14700
F752        F  0.16403893  0.00297757  0.64335948    -0.16100
C753        C  0.16979860  0.58810133  0.01301547     0.13900
C754        C  0.16102369  0.61184828  0.03593548     0.00900
C755        C  0.17299888  0.61876476  0.07871623     0.15900
C756        C  0.19470301  0.60334989  0.09654319     0.25300
C757        C  0.20448325  0.58038051  0.07241950    -0.41100
C758        C  0.19113946  0.57231078  0.03136213     0.32300
C759        C  0.14216495  0.63141102  0.01287617     0.01000
F760        F  0.16502133  0.64166401  0.10150194    -0.13400
F761        F  0.20051041  0.55067751  0.00661343    -0.13900
C762        C  0.11590464  0.63642929  0.03086269     0.15900
C763        C  0.10029522  0.65838072  0.01416194     0.25300
C764        C  0.11092285  0.67590514  0.97981800    -0.41000
C765        C  0.13650234  0.66988858  0.96005664     0.32200
C766        C  0.15185084  0.64767934  0.97606486     0.14000
F767        F  0.10610616  0.62107988  0.06648447    -0.13400
F768        F  0.14756273  0.68688779  0.92778885    -0.13900
F769        F  0.07604619  0.66419950  0.03486119    -0.16200
F770        F  0.17723874  0.64348278  0.95836148    -0.14700
F771        F  0.15867397  0.58105219  0.97158102    -0.14700
F772        F  0.20716567  0.61169632  0.13617092    -0.16100
C773        C  0.40892520  0.84044643  0.51855280     0.13900
C774        C  0.38047831  0.84127494  0.51155973     0.00900
C775        C  0.36821346  0.82092818  0.48416667     0.15900
C776        C  0.38341595  0.79865712  0.46841845     0.25300
C777        C  0.41130041  0.79626171  0.47938193    -0.41100
C778        C  0.42429026  0.81800787  0.50256085     0.32300
C779        C  0.36259101  0.86033493  0.53804302     0.01000
F780        F  0.34091779  0.82155960  0.47575750    -0.13400
F781        F  0.45110249  0.81616215  0.51406419    -0.13900
C782        C  0.36102653  0.88832617  0.52731964     0.15900
C783        C  0.33992855  0.90445202  0.54622585     0.25300
C784        C  0.32023848  0.89270138  0.57593066    -0.41000
C785        C  0.32352305  0.86542220  0.58985955     0.32200
C786        C  0.34443042  0.84943800  0.57116231     0.14000
F787        F  0.37835861  0.89941776  0.49560461    -0.13400
F788        F  0.30475286  0.85349422  0.61823465    -0.13900
F789        F  0.33698026  0.93061675  0.53158143    -0.16200
F790        F  0.34569252  0.82259665  0.58274660    -0.14700
F791        F  0.42133600  0.86007380  0.54425823    -0.14700
F792        F  0.37032649  0.77809618  0.44587812    -0.16100
C793        C  0.31963137  0.66982838  0.21556583     0.13900
C794        C  0.32285633  0.66278056  0.26267571     0.00900
C795        C  0.31574303  0.63630369  0.27701949     0.15900
C796        C  0.30719594  0.61681939  0.24488506     0.25300
C797        C  0.30600276  0.62302810  0.19703079    -0.41100
C798        C  0.31128995  0.65012387  0.18295557     0.32300
C799        C  0.33784435  0.68069581  0.29576719     0.01000
F800        F  0.31936886  0.62844885  0.32182706    -0.13400
F801        F  0.31017971  0.65717007  0.13741171    -0.13900
C802        C  0.32735613  0.68573264  0.34063661     0.15900
C803        C  0.34477334  0.69418899  0.37658385     0.25300
C804        C  0.37280378  0.69772287  0.36793023    -0.41000
C805        C  0.38249991  0.69597135  0.32201557     0.32200
C806        C  0.36520937  0.68754696  0.28624256     0.14000
F807        F  0.30076825  0.68017366  0.35047502    -0.13400
F808        F  0.40935082  0.70039833  0.31244010    -0.13900
F809        F  0.33484029  0.69609607  0.42051438    -0.16200
F810        F  0.37605796  0.68317989  0.24345433    -0.14700
F811        F  0.32583593  0.69543533  0.20082065    -0.14700
F812        F  0.30161913  0.59128837  0.26073211    -0.16100
C813        C  0.16332397  0.38168442  0.53530129     0.13900
C814        C  0.15966291  0.35433630  0.54874010     0.00900
C815        C  0.17760547  0.34302051  0.58145735     0.15900
C816        C  0.20007082  0.35800352  0.59770826     0.25300
C817        C  0.20515842  0.38472019  0.58150356    -0.41100
C818        C  0.18575977  0.39685873  0.55180076     0.32300
C819        C  0.14000572  0.33619459  0.52412007     0.01000
F820        F  0.17441562  0.31669343  0.59524450    -0.13400
F821        F  0.18981158  0.42250402  0.53526673    -0.13900
C822        C  0.14903990  0.32133095  0.48537562     0.15900
C823        C  0.13287364  0.30049526  0.46648003     0.25300
C824        C  0.10719112  0.29399530  0.48590174    -0.41000
C825        C  0.09728397  0.31027358  0.52267338     0.32200
C826        C  0.11366694  0.33110251  0.54178607     0.14000
F827        F  0.17441919  0.32582061  0.46772615    -0.13400
F828        F  0.07292103  0.30436705  0.54304783    -0.13900
F829        F  0.14313311  0.28545431  0.43091777    -0.16200
F830        F  0.10452849  0.34513739  0.57933322    -0.14700
F831        F  0.14619153  0.39309993  0.50384403    -0.14700
F832        F  0.21783325  0.34571834  0.62719464    -0.16100
C833        C  0.37777744  0.52906571  0.57622795     0.13900
C834        C  0.36426431  0.55029673  0.55309934     0.00900
C835        C  0.33691709  0.54664426  0.53973024     0.15900
C836        C  0.32326082  0.52204665  0.54912250     0.25300
C837        C  0.33674822  0.50056993  0.57212780    -0.41100
C838        C  0.36420315  0.50444029  0.58571140     0.32300
C839        C  0.37891690  0.57593982  0.54138068     0.01000
F840        F  0.32359223  0.56679976  0.51675530    -0.13400
F841        F  0.37779437  0.48466422  0.60920963    -0.13900
C842        C  0.39742176  0.57654397  0.50408200     0.15900
C843        C  0.41007553  0.60104657  0.49083531     0.25300
C844        C  0.40441671  0.62550499  0.51472325    -0.41000
C845        C  0.38641127  0.62462091  0.55305942     0.32200
C846        C  0.37378599  0.60005148  0.56619579     0.14000
F847        F  0.40244761  0.55350150  0.47937483    -0.13400
F848        F  0.38094555  0.64755698  0.57781060    -0.13900
F849        F  0.42677415  0.60103198  0.45311877    -0.16200
F850        F  0.35637467  0.59979885  0.60298110    -0.14700
F851        F  0.40408816  0.53234175  0.59007822    -0.14700
F852        F  0.29702112  0.51906181  0.53473452    -0.16100
C853        C  0.28417161  0.43627867  0.36777343     0.13900
C854        C  0.26239939  0.45368835  0.35632525     0.00900
C855        C  0.24162250  0.45851099  0.38882563     0.15900
C856        C  0.24373064  0.44790831  0.43363997     0.25300
C857        C  0.26636937  0.43193703  0.44603023    -0.41100
C858        C  0.28599873  0.42519010  0.41241315     0.32300
C859        C  0.26405045  0.47085278  0.31451652     0.01000
F860        F  0.22051589  0.47531792  0.37824948    -0.13400
F861        F  0.30813880  0.41000916  0.42402337    -0.13900
C862        C  0.24718059  0.46619905  0.27597850     0.15900
C863        C  0.24956730  0.48278440  0.23647454     0.25300
C864        C  0.26880650  0.50421115  0.23544521    -0.41000
C865        C  0.28472131  0.50943363  0.27514222     0.32200
C866        C  0.28240772  0.49283663  0.31418030     0.14000
F867        F  0.22923403  0.44502454  0.27603941    -0.13400
F868        F  0.30312663  0.53023639  0.27573172    -0.13900
F869        F  0.23440786  0.47680605  0.19838112    -0.16200
F870        F  0.29838729  0.49799004  0.35169570    -0.14700
F871        F  0.30455147  0.43161023  0.33671455    -0.14700
F872        F  0.22441038  0.45435576  0.46570211    -0.16100
C873        C  0.29767707  0.49491569  0.79079261     0.13900
C874        C  0.27219351  0.49532691  0.81290573     0.00900
C875        C  0.24963715  0.48301039  0.79106223     0.15900
C876        C  0.25275277  0.47000856  0.74777783     0.25300
C877        C  0.27860475  0.46889991  0.72608322    -0.41100
C878        C  0.30090842  0.48200296  0.74798870     0.32300
C879        C  0.27056525  0.50576652  0.86108328     0.01000
F880        F  0.22486904  0.48279114  0.81238706    -0.13400
F881        F  0.32613928  0.48232787  0.72821530    -0.13900
C882        C  0.26357254  0.53300810  0.87068328     0.15900
C883        C  0.26541001  0.54326973  0.91623468     0.25300
C884        C  0.27442720  0.52638003  0.95275846    -0.41000
C885        C  0.28134884  0.49901242  0.94247702     0.32200
C886        C  0.27934336  0.48893444  0.89733642     0.14000
F887        F  0.25547374  0.54974618  0.83579846    -0.13400
F888        F  0.29077745  0.48190182  0.97591219    -0.13900
F889        F  0.25820987  0.56955193  0.92453729    -0.16200
F890        F  0.28670230  0.46270926  0.88867797    -0.14700
F891        F  0.31977899  0.50643018  0.81154514    -0.14700
F892        F  0.23076539  0.45772183  0.72806060    -0.16100
C893        C  0.37540055  0.15062129  0.98021690     0.13900
C894        C  0.38054324  0.13894869  0.02395298     0.00900
C895        C  0.40325758  0.14800203  0.04951440     0.15900
C896        C  0.41981096  0.16925322  0.03257868     0.25300
C897        C  0.41355418  0.18215994  0.99024142    -0.41100
C898        C  0.39153890  0.17227568  0.96379499     0.32300
C899        C  0.36005722  0.12017834  0.04504764     0.01000
F900        F  0.40844172  0.13730988  0.09208002    -0.13400
F901        F  0.38468041  0.18471603  0.92333912    -0.13900
C902        C  0.35537894  0.09406376  0.02648623     0.15900
C903        C  0.33302603  0.07832590  0.04163125     0.25300
C904        C  0.31464841  0.08874034  0.07490867    -0.41000
C905        C  0.32030621  0.11427073  0.09521306     0.32200
C906        C  0.34289639  0.12971537  0.08068505     0.14000
F907        F  0.37170432  0.08439218  0.99208840    -0.13400
F908        F  0.30308052  0.12493748  0.12744846    -0.13900
F909        F  0.32799896  0.05402719  0.02068885    -0.16200
F910        F  0.34687684  0.15492353  0.09907217    -0.14700
F911        F  0.35340062  0.14247949  0.95508427    -0.14700
F912        F  0.44020142  0.17909368  0.05980489    -0.16100
C913        C  0.31711397  0.30340882  0.71985795     0.13900
C914        C  0.32173803  0.31240123  0.76557817     0.00900
C915        C  0.31716364  0.33995193  0.77656104     0.15900
C916        C  0.31036768  0.35856171  0.74198384     0.25300
C917        C  0.30863990  0.35021474  0.69529428    -0.41100
C918        C  0.31069811  0.32219045  0.68484906     0.32300
C919        C  0.33662358  0.29523136  0.79943278     0.01000
F920        F  0.32188699  0.34952220  0.82006527    -0.13400
F921        F  0.30843178  0.31315345  0.64045927    -0.13900
C922        C  0.36280462  0.28581274  0.78759479     0.15900
C923        C  0.38099563  0.27794066  0.82213659     0.25300
C924        C  0.37368018  0.28009319  0.86939266    -0.41000
C925        C  0.34644540  0.28627919  0.88094008     0.32200
C926        C  0.32794362  0.29356638  0.84601227     0.14000
F927        F  0.37200854  0.28720258  0.74311188    -0.13400
F928        F  0.33837799  0.28776316  0.92599176    -0.13900
F929        F  0.40659898  0.27032025  0.80927266    -0.16200
F930        F  0.30228093  0.30137727  0.85801328    -0.14700
F931        F  0.32060414  0.27673575  0.70858228    -0.14700
F932        F  0.30699898  0.38513047  0.75412113    -0.16100
C933        C  0.38218905  0.37137753  0.08754938     0.13900
C934        C  0.38241866  0.39578904  0.06196831     0.00900
C935        C  0.39562015  0.39640641  0.01864834     0.15900
C936        C  0.40740251  0.37278892  0.00020850     0.25300
C937        C  0.40624183  0.34785100  0.02476878    -0.41100
C938        C  0.39403959  0.34765791  0.06929578     0.32300
C939        C  0.36733384  0.42019584  0.07843737     0.01000
F940        F  0.39604654  0.41972316  0.99312826    -0.13400
F941        F  0.39292722  0.32441453  0.09492948    -0.13900
C942        C  0.38097242  0.44511180  0.08520868     0.15900
C943        C  0.36624973  0.46892068  0.09484136     0.25300
C944        C  0.33739986  0.46835040  0.09758500    -0.41000
C945        C  0.32396138  0.44296024  0.09307316     0.32200
C946        C  0.33879932  0.41919866  0.08359853     0.14000
F947        F  0.40863787  0.44642716  0.08195028    -0.13400
F948        F  0.29636863  0.44102261  0.09699169    -0.13900
F949        F  0.38038103  0.49255179  0.10073712    -0.16200
F950        F  0.32512377  0.39532536  0.07747359    -0.14700
F951        F  0.37020455  0.37045418  0.13009891    -0.14700
F952        F  0.41933633  0.37436758  0.95767460    -0.16100
C953        C  0.90297346  0.32855288  0.04453152     0.13900
C954        C  0.87783447  0.33521829  0.02410839     0.00900
C955        C  0.86916720  0.32077406  0.98461195     0.15900
C956        C  0.88461619  0.29898645  0.96737629     0.25300
C957        C  0.90928762  0.29151143  0.98885164    -0.41100
C958        C  0.91874346  0.30704558  0.02676821     0.32300
C959        C  0.85932720  0.35555293  0.04569043     0.01000
F960        F  0.84486538  0.32676666  0.96439109    -0.13400
F961        F  0.94212195  0.30000978  0.04901925    -0.13900
C962        C  0.85317049  0.37993671  0.02234231     0.15900
C963        C  0.83169088  0.39648310  0.03774284     0.25300
C964        C  0.81589284  0.38875278  0.07640089    -0.41000
C965        C  0.82307663  0.36526337  0.10144755     0.32200
C966        C  0.84485908  0.34889597  0.08647112     0.14000
F967        F  0.86676367  0.38672070  0.98282144    -0.13400
F968        F  0.80752714  0.35696914  0.13796953    -0.13900
F969        F  0.82451405  0.41861760  0.01217086    -0.16200
F970        F  0.85024410  0.32528536  0.10934946    -0.14700
F971        F  0.91170880  0.34221848  0.08272698    -0.14700
F972        F  0.87493156  0.28448485  0.93074029    -0.16100
C973        C  0.62170788  0.35938231  0.98054187     0.13900
C974        C  0.59723066  0.36363925  0.00491494     0.00900
C975        C  0.59681784  0.38200131  0.04235480     0.15900
C976        C  0.62095885  0.39461142  0.05710926     0.25300
C977        C  0.64590400  0.38884489  0.03474884    -0.41100
C978        C  0.64586300  0.37184502  0.99531664     0.32300
C979        C  0.57267448  0.34738100  0.99356827     0.01000
F980        F  0.57334539  0.38638920  0.06643983    -0.13400
F981        F  0.66935434  0.36673197  0.97169597    -0.13900
C982        C  0.57319303  0.31884341  0.99816210     0.15900
C983        C  0.54976306  0.30331137  0.98942061     0.25300
C984        C  0.52527063  0.31609278  0.97593638    -0.41000
C985        C  0.52502929  0.34479768  0.97076228     0.32200
C986        C  0.54850043  0.36021945  0.97961930     0.14000
F987        F  0.59629980  0.30605432  0.01236604    -0.13400
F988        F  0.50218576  0.35811510  0.95672180    -0.13900
F989        F  0.55104916  0.27582931  0.99500104    -0.16200
F990        F  0.54771399  0.38773852  0.97414942    -0.14700
F991        F  0.62230094  0.34254939  0.94311146    -0.14700
F992        F  0.62018014  0.41088237  0.09523436    -0.16100
C993        C  0.67978694  0.12504656  0.56642354     0.13900
C994        C  0.66245477  0.11520407  0.53141550     0.00900
C995        C  0.66580029  0.08828060  0.51562622     0.15900
C996        C  0.68723668  0.07199764  0.53270896     0.25300
C997        C  0.70585065  0.08256145  0.56553257    -0.41100
C998        C  0.70123016  0.10897911  0.58326724     0.32300
C999        C  0.64300975  0.13432868  0.50878042     0.01000
F1000       F  0.64927330  0.07832983  0.48181445    -0.13400
F1001       F  0.71842899  0.11986576  0.61527658    -0.13900
C1002       C  0.65243227  0.15172801  0.47329681     0.15900
C1003       C  0.63666640  0.17402202  0.45885786     0.25300
C1004       C  0.61103383  0.17907464  0.47913906    -0.41000
C1005       C  0.60062791  0.16040335  0.51188491     0.32200
C1006       C  0.61658903  0.13826237  0.52684038     0.14000
F1007       F  0.67781818  0.14828991  0.45512397    -0.13400
F1008       F  0.57618333  0.16516921  0.53272531    -0.13900
F1009       F  0.64725154  0.19186897  0.42747005    -0.16200
F1010       F  0.60710295  0.12188575  0.56135618    -0.14700
F1011       F  0.67684945  0.15093483  0.58246629    -0.14700
F1012       F  0.69117473  0.04685746  0.51411678    -0.16100
C1013       C  0.39382533  0.33504289  0.50411346     0.13900
C1014       C  0.41932560  0.34816728  0.50775686     0.00900
C1015       C  0.42025546  0.37537393  0.52327210     0.15900
C1016       C  0.39626999  0.38874463  0.53708141     0.25300
C1017       C  0.37084335  0.37533804  0.53477113    -0.41100
C1018       C  0.36977884  0.34856185  0.51714447     0.32300
C1019       C  0.44500475  0.33314835  0.49727680     0.01000
F1020       F  0.44455780  0.38864055  0.52678805    -0.13400
F1021       F  0.34563406  0.33489234  0.51504843    -0.13900
C1022       C  0.46246616  0.34190589  0.46149830     0.15900
C1023       C  0.48690133  0.32803988  0.45226895     0.25300
C1024       C  0.49454071  0.30496857  0.47881062    -0.41000
C1025       C  0.47687657  0.29631150  0.51476040     0.32200
C1026       C  0.45241051  0.31022677  0.52375147     0.14000
F1027       F  0.45565121  0.36376808  0.43497352    -0.13400
F1028       F  0.48332828  0.27456843  0.54179361    -0.13900
F1029       F  0.50294960  0.33731175  0.41706926    -0.16200
F1030       F  0.43615366  0.30165252  0.55917081    -0.14700
F1031       F  0.39228536  0.30892918  0.48856798    -0.14700
F1032       F  0.39790086  0.41474800  0.55313778    -0.16100
C1033       C  0.53439825  0.22187167  0.67316995     0.13900
C1034       C  0.53918189  0.24251837  0.70573774     0.00900
C1035       C  0.55788223  0.26346629  0.69502362     0.15900
C1036       C  0.57035166  0.26469508  0.65113647     0.25300
C1037       C  0.56399676  0.24510506  0.61705275    -0.41100
C1038       C  0.54670809  0.22304158  0.62935794     0.32300
C1039       C  0.52223801  0.24406045  0.74833237     0.01000
F1040       F  0.56318503  0.28335547  0.72656220    -0.13400
F1041       F  0.54082861  0.20296586  0.59842098    -0.13900
C1042       C  0.52582504  0.22574593  0.78539437     0.15900
C1043       C  0.51026058  0.22847512  0.82620754     0.25300
C1044       C  0.49084084  0.24954438  0.83030062    -0.41000
C1045       C  0.48636555  0.26681617  0.79189739     0.32200
C1046       C  0.50192397  0.26409485  0.75147541     0.14000
F1047       F  0.54505441  0.20589203  0.78264742    -0.13400
F1048       F  0.46711273  0.28670651  0.79364385    -0.13900
F1049       F  0.51524944  0.21150265  0.86246369    -0.16200
F1050       F  0.49728043  0.28120782  0.71523930    -0.14700
F1051       F  0.51646002  0.20142644  0.68278651    -0.14700
F1052       F  0.58732445  0.28589219  0.64127949    -0.16100
C1053       C  0.53155641  0.25263991  0.24492209     0.13900
C1054       C  0.50551321  0.24054647  0.24511579     0.00900
C1055       C  0.49477468  0.23029030  0.28676972     0.15900
C1056       C  0.50949928  0.23295173  0.32816062     0.25300
C1057       C  0.53517582  0.24628419  0.32858090    -0.41100
C1058       C  0.54624805  0.25555140  0.28617219     0.32300
C1059       C  0.48965863  0.23933350  0.20158252     0.01000
F1060       F  0.46988497  0.21796828  0.28739171    -0.13400
F1061       F  0.57106588  0.26798954  0.28457300    -0.13900
C1062       C  0.49921486  0.22340968  0.16460293     0.15900
C1063       C  0.48739699  0.22577545  0.12079897     0.25300
C1064       C  0.46578688  0.24414671  0.11319301    -0.41000
C1065       C  0.45485275  0.25864319  0.15094243     0.32200
C1066       C  0.46681998  0.25629553  0.19499723     0.14000
F1067       F  0.52074073  0.20634104  0.17059611    -0.13400
F1068       F  0.43405218  0.27651651  0.14447801    -0.13900
F1069       F  0.49762995  0.21065378  0.08529605    -0.16200
F1070       F  0.45730951  0.27187537  0.23046038    -0.14700
F1071       F  0.54235913  0.26253864  0.20480156    -0.14700
F1072       F  0.49799640  0.22346605  0.36799933    -0.16100
C1073       C  0.68121068  0.31482452  0.22148734     0.13900
C1074       C  0.69924415  0.31432589  0.25942592     0.00900
C1075       C  0.72423502  0.32852767  0.25614998     0.15900
C1076       C  0.73034141  0.34414870  0.21652337     0.25300
C1077       C  0.71137789  0.34602202  0.18010606    -0.41100
C1078       C  0.68710395  0.33076578  0.18241537     0.32300
C1079       C  0.68922733  0.30345444  0.30453678     0.01000
F1080       F  0.74186198  0.32864036  0.29247982    -0.13400
F1081       F  0.66821649  0.33284206  0.14812919    -0.13900
C1082       C  0.68130669  0.27592014  0.30927776     0.15900
C1083       C  0.66489597  0.26762304  0.34690568     0.25300
C1084       C  0.65610227  0.28687209  0.37978542    -0.41000
C1085       C  0.66599307  0.31378204  0.37707116     0.32200
C1086       C  0.68253880  0.32197393  0.33998003     0.14000
F1087       F  0.68790359  0.25757780  0.27580253    -0.13400
F1088       F  0.65779378  0.33271034  0.40858358    -0.13900
F1089       F  0.65554313  0.24153990  0.34879457    -0.16200
F1090       F  0.68966833  0.34869683  0.33623558    -0.14700
F1091       F  0.65664861  0.30193773  0.22415763    -0.14700
F1092       F  0.75356929  0.35937118  0.21549948    -0.16100
C1093       C  0.87951072  0.64480203  0.46890606     0.13900
C1094       C  0.88352153  0.63225146  0.51239150     0.00900
C1095       C  0.90642104  0.63995823  0.53885141     0.15900
C1096       C  0.92370391  0.66115899  0.52386466     0.25300
C1097       C  0.91822271  0.67535182  0.48241333    -0.41100
C1098       C  0.89651189  0.66635477  0.45434145     0.32300
C1099       C  0.86189529  0.61416409  0.53267590     0.01000
F1100       F  0.91110806  0.62800435  0.58061450    -0.13400
F1101       F  0.89083239  0.67951346  0.41402004    -0.13900
C1102       C  0.85352415  0.59002276  0.51026787     0.15900
C1103       C  0.83073800  0.57524052  0.52656777     0.25300
C1104       C  0.81563608  0.58458045  0.56513298    -0.41000
C1105       C  0.82474968  0.60800753  0.58863827     0.32200
C1106       C  0.84773046  0.62249281  0.57286960     0.14000
F1107       F  0.86681388  0.58130954  0.47160671    -0.13400
F1108       F  0.81064711  0.61753145  0.62588505    -0.13900
F1109       F  0.82210287  0.55308896  0.50232232    -0.16200
F1110       F  0.85505393  0.64578401  0.59516838    -0.14700
F1111       F  0.85777883  0.63773192  0.44223485    -0.14700
F1112       F  0.94409740  0.66968450  0.55229726    -0.16100
C1113       C  0.63704614  0.37753163  0.56982514     0.13900
C1114       C  0.63784145  0.39987705  0.53926346     0.00900
C1115       C  0.62531906  0.39763995  0.49558514     0.15900
C1116       C  0.61271190  0.37317866  0.48222858     0.25300
C1117       C  0.61252143  0.35053065  0.51236483    -0.41100
C1118       C  0.62460029  0.35302008  0.55643173     0.32300
C1119       C  0.65295170  0.42500646  0.55203522     0.01000
F1120       F  0.62650990  0.41872533  0.46501590    -0.13400
F1121       F  0.62457385  0.33159460  0.58635633    -0.13900
C1122       C  0.68148001  0.42438640  0.55669717     0.15900
C1123       C  0.69601821  0.44806179  0.56821937     0.25300
C1124       C  0.68224788  0.47297704  0.57563066    -0.41000
C1125       C  0.65347452  0.47339179  0.57103153     0.32200
C1126       C  0.63906668  0.44965620  0.55916773     0.14000
F1127       F  0.69535201  0.40081994  0.54925763    -0.13400
F1128       F  0.63909583  0.49670138  0.57802456    -0.13900
F1129       F  0.72362257  0.44644738  0.57186662    -0.16200
F1130       F  0.61143752  0.45063451  0.55520900    -0.14700
F1131       F  0.64865115  0.37940232  0.61247822    -0.14700
F1132       F  0.60233511  0.37107129  0.43867826    -0.16100
C1133       C  0.56223970  0.65509743  0.54169340     0.13900
C1134       C  0.57437200  0.63892010  0.50693540     0.00900
C1135       C  0.56233405  0.63785227  0.46282580     0.15900
C1136       C  0.53849681  0.65251991  0.45359688     0.25300
C1137       C  0.52618705  0.66868266  0.48833434    -0.41100
C1138       C  0.53841524  0.66997198  0.53243047     0.32300
C1139       C  0.59942618  0.62297637  0.51684601     0.01000
F1140       F  0.57339334  0.62212664  0.42885541    -0.13400
F1141       F  0.52691878  0.68496987  0.56692179    -0.13900
C1142       C  0.59921055  0.60304717  0.55182816     0.15900
C1143       C  0.62312246  0.58908100  0.56328338     0.25300
C1144       C  0.64793989  0.59485333  0.54006981    -0.41000
C1145       C  0.64776997  0.61387277  0.50334236     0.32200
C1146       C  0.62371451  0.62779785  0.49189437     0.14000
F1147       F  0.57575391  0.59715884  0.57511636    -0.13400
F1148       F  0.67108086  0.61996581  0.47981708    -0.13900
F1149       F  0.62194501  0.57012467  0.59767087    -0.16200
F1150       F  0.62440395  0.64684090  0.45764447    -0.14700
F1151       F  0.57360182  0.65658640  0.58458796    -0.14700
F1152       F  0.52765603  0.65116572  0.41028231    -0.16100
C1153       C  0.73192323  0.52711076  0.36549649     0.13900
C1154       C  0.75119440  0.50649941  0.35678993     0.00900
C1155       C  0.77043272  0.49975521  0.39074976     0.15900
C1156       C  0.76959475  0.51249536  0.43393989     0.25300
C1157       C  0.74950706  0.53219906  0.44366068    -0.41100
C1158       C  0.73111748  0.54000439  0.40883161     0.32300
C1159       C  0.75036995  0.49101891  0.31316502     0.01000
F1160       F  0.78953735  0.48030126  0.38238990    -0.13400
F1161       F  0.71122003  0.55852778  0.41787163    -0.13900
C1162       C  0.75895930  0.50324938  0.27172644     0.15900
C1163       C  0.75687163  0.48907987  0.22991303     0.25300
C1164       C  0.74581764  0.46244091  0.22894738    -0.41000
C1165       C  0.73801766  0.44992725  0.27097022     0.32200
C1166       C  0.74043236  0.46411679  0.31283297     0.14000
F1167       F  0.76893861  0.52913658  0.27175068    -0.13400
F1168       F  0.72766074  0.42417947  0.27150907    -0.13900
F1169       F  0.76434885  0.50207076  0.19017733    -0.16200
F1170       F  0.73224703  0.45196832  0.35293779    -0.14700
F1171       F  0.71303332  0.53362348  0.33289158    -0.14700
F1172       F  0.78792145  0.50501813  0.46690519    -0.16100
C1173       C  0.73194374  0.44359895  0.86339641     0.13900
C1174       C  0.75214564  0.46327413  0.85372208     0.00900
C1175       C  0.77184445  0.46934441  0.88724929     0.15900
C1176       C  0.77088716  0.45671703  0.93061994     0.25300
C1177       C  0.74992924  0.43777823  0.94153482    -0.41100
C1178       C  0.73087873  0.43082241  0.90690056     0.32300
C1179       C  0.75099126  0.47954995  0.81067928     0.01000
F1180       F  0.79111809  0.48874945  0.87890868    -0.13400
F1181       F  0.71042121  0.41275717  0.91571722    -0.13900
C1182       C  0.72944939  0.49791350  0.80450283     0.15900
C1183       C  0.72743404  0.51297987  0.76367891     0.25300
C1184       C  0.74674013  0.50963280  0.72762091    -0.41000
C1185       C  0.76924291  0.49232819  0.73492762     0.32200
C1186       C  0.77139579  0.47745903  0.77642327     0.14000
F1187       F  0.71020007  0.50114537  0.83811454    -0.13400
F1188       F  0.78832480  0.48872359  0.70121561    -0.13900
F1189       F  0.70613964  0.53051419  0.75915361    -0.16200
F1190       F  0.79281241  0.46029106  0.78254753    -0.14700
F1191       F  0.71269940  0.43747394  0.83112504    -0.14700
F1192       F  0.79005270  0.46391775  0.96240362    -0.16100
C1193       C  0.61823133  0.82599365  0.04574931     0.13900
C1194       C  0.64110068  0.83443252  0.01984063     0.00900
C1195       C  0.64591301  0.82261796  0.97610722     0.15900
C1196       C  0.62928491  0.80128560  0.96007242     0.25300
C1197       C  0.60723951  0.79182710  0.98708775    -0.41100
C1198       C  0.60122634  0.80506157  0.02926312     0.32300
C1199       C  0.66214691  0.85241648  0.04088360     0.01000
F1200       F  0.66800965  0.83030130  0.95061042    -0.13400
F1201       F  0.58064945  0.79577555  0.05684788    -0.13900
C1202       C  0.68053814  0.84143543  0.07316504     0.15900
C1203       C  0.70311852  0.85662905  0.08811125     0.25300
C1204       C  0.70776400  0.88327681  0.07119150    -0.41000
C1205       C  0.68823043  0.89490471  0.04119678     0.32200
C1206       C  0.66572909  0.87947575  0.02589691     0.14000
F1207       F  0.67759531  0.81524940  0.08789662    -0.13400
F1208       F  0.69206707  0.92033554  0.02357628    -0.13900
F1209       F  0.72127358  0.84466575  0.11729547    -0.16200
F1210       F  0.64811310  0.89048811  0.99479469    -0.14700
F1211       F  0.61342504  0.83682615  0.08835800    -0.14700
F1212       F  0.63565522  0.78874506  0.91944490    -0.16100
C1213       C  0.44846022  0.66071199  0.02782907     0.13900
C1214       C  0.44464819  0.63339728  0.01447578     0.00900
C1215       C  0.46542484  0.61996348  0.98988432     0.15900
C1216       C  0.48957858  0.63365562  0.97832308     0.25300
C1217       C  0.49335145  0.66118713  0.99095475    -0.41100
C1218       C  0.47257468  0.67452840  0.01613152     0.32300
C1219       C  0.41910007  0.61876366  0.02636042     0.01000
F1220       F  0.46201873  0.59367753  0.97610165    -0.13400
F1221       F  0.47575139  0.70079623  0.03019558    -0.13900
C1222       C  0.39380820  0.62815605  0.00987678     0.15900
C1223       C  0.36964955  0.61443378  0.02161598     0.25300
C1224       C  0.37042451  0.59121615  0.05040489    -0.41000
C1225       C  0.39585218  0.58156986  0.06609031     0.32200
C1226       C  0.41995460  0.59522514  0.05414662     0.14000
F1227       F  0.39252288  0.65072734  0.98259316    -0.13400
F1228       F  0.39737542  0.55900095  0.09335250    -0.13900
F1229       F  0.34544720  0.62463479  0.00661973    -0.16200
F1230       F  0.44412304  0.58593234  0.07089245    -0.14700
F1231       F  0.42898690  0.67386020  0.05289522    -0.14700
F1232       F  0.50889658  0.62011794  0.95354318    -0.16100
C1233       C  0.56288927  0.71429787  0.19758807     0.13900
C1234       C  0.54047038  0.73105202  0.20881223     0.00900
C1235       C  0.52920005  0.74775952  0.17432644     0.15900
C1236       C  0.53891897  0.74647006  0.12872423     0.25300
C1237       C  0.56027794  0.72854143  0.11668180    -0.41100
C1238       C  0.57292329  0.71324094  0.15185317     0.32300
C1239       C  0.52606393  0.72818766  0.25395140     0.01000
F1240       F  0.50744357  0.76392808  0.18413885    -0.13400
F1241       F  0.59356808  0.69583072  0.14136815    -0.13900
C1242       C  0.52485304  0.74977366  0.28606929     0.15900
C1243       C  0.50916951  0.74726237  0.32687056     0.25300
C1244       C  0.49389797  0.72333292  0.33555390    -0.41000
C1245       C  0.49538828  0.70178086  0.30307985     0.32200
C1246       C  0.51131598  0.70420654  0.26299471     0.14000
F1247       F  0.53888131  0.77323283  0.27786700    -0.13400
F1248       F  0.48191721  0.67788901  0.31044272    -0.13900
F1249       F  0.50866197  0.76833280  0.35743726    -0.16200
F1250       F  0.51183246  0.68322331  0.23220661    -0.14700
F1251       F  0.57419413  0.69805453  0.23051197    -0.14700
F1252       F  0.52672233  0.76210642  0.09582299    -0.16100
C1253       C  0.51515520  0.70994544  0.75604041     0.13900
C1254       C  0.49400942  0.72913064  0.75271124     0.00900
C1255       C  0.48944514  0.74716709  0.78999947     0.15900
C1256       C  0.50495625  0.74501673  0.83086949     0.25300
C1257       C  0.52495843  0.72458853  0.83506371    -0.41100
C1258       C  0.53020132  0.70747868  0.79679500     0.32300
C1259       C  0.47705258  0.72975567  0.71003753     0.01000
F1260       F  0.46920099  0.76599580  0.78764729    -0.13400
F1261       F  0.54958643  0.68776778  0.79910950    -0.13900
C1262       C  0.46410901  0.70576000  0.69431071     0.15900
C1263       C  0.45241210  0.70467384  0.65003675     0.25300
C1264       C  0.45343645  0.72760332  0.62078238    -0.41000
C1265       C  0.46448277  0.75219875  0.63795380     0.32200
C1266       C  0.47620911  0.75325535  0.68218335     0.14000
F1267       F  0.46397913  0.68293515  0.72109202    -0.13400
F1268       F  0.46481877  0.77502006  0.61116060    -0.13900
F1269       F  0.44202543  0.68062768  0.63454083    -0.16200
F1270       F  0.48837455  0.77672377  0.69644480    -0.14700
F1271       F  0.52109217  0.69326828  0.71973988    -0.14700
F1272       F  0.49924452  0.76170125  0.86720609    -0.16100
C1273       C  0.68767694  0.68466616  0.83275149     0.13900
C1274       C  0.67838846  0.67827073  0.78784536     0.00900
C1275       C  0.65056885  0.68152065  0.77759619     0.15900
C1276       C  0.63201216  0.68842362  0.81249572     0.25300
C1277       C  0.64075584  0.69187405  0.85886332    -0.41100
C1278       C  0.66903896  0.69138676  0.86803817     0.32300
C1279       C  0.69581790  0.66276826  0.75491111     0.01000
F1280       F  0.64084578  0.67545094  0.73466574    -0.13400
F1281       F  0.67861056  0.69566062  0.91162818    -0.13900
C1282       C  0.70535944  0.63697168  0.76843480     0.15900
C1283       C  0.71483330  0.61849774  0.73536752     0.25300
C1284       C  0.71450840  0.62518810  0.68773871    -0.41000
C1285       C  0.70785678  0.65208243  0.67469446     0.32200
C1286       C  0.69849217  0.67072870  0.70811823     0.14000
F1287       F  0.70283274  0.62849087  0.81315488    -0.13400
F1288       F  0.70818493  0.65967612  0.62935178    -0.13900
F1289       F  0.72245971  0.59326381  0.74988879    -0.16200
F1290       F  0.69025447  0.69590074  0.69437271    -0.14700
F1291       F  0.71464898  0.68265950  0.84308681    -0.14700
F1292       F  0.60520190  0.69011213  0.80100880    -0.16100
C1293       C  0.64354476  0.60067172  0.07267047     0.13900
C1294       C  0.64826934  0.57918948  0.04127198     0.00900
C1295       C  0.63746850  0.58102365  0.99625511     0.15900
C1296       C  0.62284438  0.60408379  0.98237183     0.25300
C1297       C  0.61853844  0.62600848  0.01333325    -0.41100
C1298       C  0.62883174  0.62384116  0.05889051     0.32300
C1299       C  0.66422678  0.55469200  0.05507434     0.01000
F1300       F  0.64098683  0.56029013  0.96555564    -0.13400
F1301       F  0.62482317  0.64417010  0.09017113    -0.13900
C1302       C  0.65581318  0.53854905  0.09282050     0.15900
C1303       C  0.66965877  0.51442566  0.10374474     0.25300
C1304       C  0.69221766  0.50570735  0.07690485    -0.41000
C1305       C  0.70104193  0.52237735  0.03978180     0.32200
C1306       C  0.68723045  0.54660005  0.02916806     0.14000
F1307       F  0.63354450  0.54565418  0.11825679    -0.13400
F1308       F  0.72267557  0.51505771  0.01298781    -0.13900
F1309       F  0.66067471  0.49955260  0.14058224    -0.16200
F1310       F  0.69632298  0.56219562  0.99328730    -0.14700
F1311       F  0.65377896  0.59953673  0.11640225    -0.14700
F1312       F  0.61356782  0.60509948  0.93800602    -0.16100
loop_ 
_geom_bond_atom_site_label_1 
_geom_bond_atom_site_label_2 
_geom_bond_distance 
_geom_bond_site_symmetry_2 
_ccdc_geom_bond_type 
O1           C16   1.261       .  A
O1           Al9   1.876       .  S
C2           O12   1.259       .  A
C2            O3   1.271       .  A
C2         C1237   1.481       .  S
O3           Al5   1.950   1_554  S
O4            C6   1.257   1_554  A
O4           Al5   1.905   1_554  S
Al5          O13   1.884       .  S
Al5          O15   1.952       .  S
Al5          O14   1.780       .  S
C6           O19   1.257       .  A
C6         C1297   1.491   1_556  S
O7           C17   1.264       .  A
O7           Al9   1.890       .  S
O8           C21   1.265       .  A
O8          Al18   1.921       .  S
Al9          O22   1.900       .  S
Al9          O19   1.907       .  S
Al9          O14   1.778       .  S
O10          C17   1.269       .  A
O10         Al18   1.933       .  S
O11          C20   1.262       .  A
O11         Al18   1.930       .  S
O12         Al18   1.869   1_554  S
O13          C20   1.254       .  A
O14         Al18   1.788       .  S
O15          C16   1.273       .  A
C16        C1277   1.491       .  S
C17        C1217   1.481       .  S
C20        C1197   1.478       .  S
C21          O22   1.260       .  A
C21        C1257   1.481       .  S
O23          C38   1.262       .  A
O23         Al31   1.873       .  S
C24          O34   1.257       .  A
C24          O25   1.268       .  A
C24        C1157   1.466       .  S
O25         Al27   1.935       .  S
O26          C28   1.257       .  A
O26         Al27   1.910       .  S
Al27         O35   1.891       .  S
Al27         O37   1.951       .  S
Al27         O36   1.783       .  S
C28          O41   1.254       .  A
C28        C1144   1.487       .  S
O29          C39   1.264       .  A
O29         Al31   1.892       .  S
O30          C43   1.264       .  A
O30         Al40   1.921       .  S
Al31         O44   1.890       .  S
Al31         O41   1.893       .  S
Al31         O36   1.776       .  S
O32          C39   1.272       .  A
O32         Al40   1.946       .  S
O33          C42   1.264       .  A
O33         Al40   1.936       .  S
O34         Al40   1.856       .  S
O35          C42   1.257       .  A
O36         Al40   1.787       .  S
O37          C38   1.273       .  A
C38        C1284   1.485       .  S
C39        C1124   1.492       .  S
C42        C1104   1.486       .  S
C43          O44   1.258       .  A
C43        C1184   1.480       .  S
O45          C60   1.259       .  A
O45         Al53   1.896       .  S
C46          O56   1.265       .  A
C46          O47   1.258       .  A
C46        C1037   1.489       .  S
O47         Al49   1.893       .  S
O48          C50   1.264       .  A
O48         Al49   1.914       .  S
Al49         O57   1.924       .  S
Al49         O59   1.907       .  S
Al49         O58   1.795       .  S
C50          O63   1.262       .  A
C50        C1024   1.496       .  S
O51          C61   1.259       .  A
O51         Al53   1.897       .  S
O52          C65   1.264       .  A
O52         Al62   1.925       .  S
Al53         O66   1.896       .  S
Al53         O63   1.910       .  S
Al53         O58   1.791       .  S
O54          C61   1.260       .  A
O54         Al62   1.908       .  S
O55          C64   1.260       .  A
O55         Al62   1.901       .  S
O56         Al62   1.923       .  S
O57          C64   1.266       .  A
O58         Al62   1.791       .  S
O59          C60   1.259       .  A
C60        C1057   1.486       .  S
C61        C1117   1.478       .  S
C64        C1004   1.478       .  S
C65          O66   1.260       .  A
C65        C1084   1.474       .  S
O67          C82   1.259       .  A
O67         Al75   1.891       .  S
C68          O78   1.267   1_556  A
C68          O69   1.261   1_556  A
C68        C1177   1.485       .  S
O69         Al71   1.893       .  S
O70          C72   1.261       .  A
O70         Al71   1.907       .  S
Al71         O79   1.921       .  S
Al71         O81   1.895       .  S
Al71         O80   1.786       .  S
C72          O85   1.262       .  A
C72        C1304   1.492       .  S
O73          C83   1.258       .  A
O73         Al75   1.898       .  S
O74          C87   1.265       .  A
O74         Al84   1.918       .  S
Al75         O88   1.911       .  S
Al75         O85   1.908       .  S
Al75         O80   1.786       .  S
O76          C83   1.259       .  A
O76         Al84   1.902       .  S
O77          C86   1.257       .  A
O77         Al84   1.893       .  S
O78         Al84   1.918       .  S
O79          C86   1.263       .  A
O80         Al84   1.784       .  S
O81          C82   1.259       .  A
C82        C1164   1.476       .  S
C83         C977   1.478       .  S
C86         C964   1.469       .  S
C87          O88   1.263       .  A
C87        C1077   1.472       .  S
O89         C104   1.258       .  A
O89         Al97   1.859       .  S
C90         O100   1.258       .  A
C90          O91   1.268       .  A
C90        C1064   1.474       .  S
O91         Al93   1.942   1_554  S
O92          C94   1.257       .  A
O92         Al93   1.899   1_554  S
Al93        O101   1.882       .  S
Al93        O103   1.950       .  S
Al93        O102   1.780       .  S
C94         O107   1.261   1_554  A
C94         C937   1.492       .  S
O95         C105   1.260       .  A
O95         Al97   1.875       .  S
O96         C109   1.264       .  A
O96        Al106   1.916       .  S
Al97        O110   1.910       .  S
Al97        O107   1.920       .  S
Al97        O102   1.774       .  S
O98         C105   1.271       .  A
O98        Al106   1.946       .  S
O99         C108   1.266       .  A
O99        Al106   1.945       .  S
O100       Al106   1.865   1_554  S
O101        C108   1.255       .  A
O102       Al106   1.782       .  S
O103        C104   1.271       .  A
C104        C924   1.480       .  S
C105        C984   1.485       .  S
C108        C897   1.479       .  S
C109        O110   1.262       .  A
C109       C1044   1.485       .  S
O111        C126   1.261       .  A
O111       Al119   1.875       .  S
C112        O122   1.259       .  A
C112        O113   1.265       .  A
C112        C857   1.464       .  S
O113       Al115   1.920       .  S
O114        C116   1.256       .  A
O114       Al115   1.899       .  S
Al115       O123   1.883       .  S
Al115       O125   1.926       .  S
Al115       O124   1.790       .  S
C116        O129   1.257       .  A
C116       C1017   1.483       .  S
O117        C127   1.263       .  A
O117       Al119   1.893       .  S
O118        C131   1.265       .  A
O118       Al128   1.926       .  S
Al119       O132   1.903       .  S
Al119       O129   1.911       .  S
Al119       O124   1.783       .  S
O120        C127   1.270       .  A
O120       Al128   1.945       .  S
O121        C130   1.264       .  A
O121       Al128   1.941       .  S
O122       Al128   1.872       .  S
O123        C130   1.255       .  A
O124       Al128   1.793       .  S
O125        C126   1.267       .  A
C126        C917   1.481       .  S
C127        C837   1.489       .  S
C130        C817   1.493       .  S
C131        O132   1.260       .  A
C131        C877   1.492       .  S
O133        C148   1.256       .  A
O133       Al141   1.879       .  S
C134        O144   1.265       .  A
C134        O135   1.263       .  A
C134       C1264   1.479       .  S
O135       Al137   1.909       .  S
O136        C138   1.264       .  A
O136       Al137   1.917       .  S
Al137       O145   1.934       .  S
Al137       O147   1.930       .  S
Al137       O146   1.800       .  S
C138        O151   1.260       .  A
C138       C1137   1.483       .  S
O139        C149   1.257       .  A
O139       Al141   1.903       .  S
O140        C153   1.265       .  A
O140       Al150   1.917       .  S
Al141       O154   1.896       .  S
Al141       O151   1.893       .  S
Al141       O146   1.786       .  S
O142        C149   1.257       .  A
O142       Al150   1.908       .  S
O143        C152   1.259       .  A
O143       Al150   1.891       .  S
O144       Al150   1.912       .  S
O145        C152   1.267       .  A
O146       Al150   1.793       .  S
O147        C148   1.263       .  A
C148       C1244   1.490       .  S
C149        C844   1.488       .  S
C152        C777   1.482       .  S
C153        O154   1.262       .  A
C153        C804   1.476       .  S
O155        C170   1.261       .  A
O155       Al163   1.898       .  S
C156        O166   1.274       .  A
C156        O157   1.257       .  A
C156        C884   1.492   1_554  S
O157       Al159   1.859       .  S
O158        C160   1.270       .  A
O158       Al159   1.945       .  S
Al159       O167   1.947       .  S
Al159       O169   1.908       .  S
Al159       O168   1.785       .  S
C160        O173   1.262       .  A
C160        C944   1.492       .  S
O161        C171   1.258       .  A
O161       Al163   1.902       .  S
O162        C175   1.273       .  A
O162       Al172   1.961       .  S
Al163       O176   1.871       .  S
Al163       O173   1.890       .  S
Al163       O168   1.774       .  S
O164        C171   1.257       .  A
O164       Al172   1.895       .  S
O165        C174   1.255       .  A
O165       Al172   1.886       .  S
O166       Al172   1.966       .  S
O167        C174   1.266       .  A
O168       Al172   1.782       .  S
O169        C170   1.264       .  A
C170        C864   1.474       .  S
C171       C1224   1.476       .  S
C174        C757   1.484       .  S
C175        O176   1.260       .  A
C175        C797   1.493       .  S
O177        C192   1.261       .  A
O177       Al185   1.870       .  S
C178        O188   1.256       .  A
C178        O179   1.270       .  A
C178        C677   1.478       .  S
O179       Al181   1.953       .  S
O180        C182   1.260       .  A
O180       Al181   1.913       .  S
Al181       O189   1.880       .  S
Al181       O191   1.954       .  S
Al181       O190   1.778       .  S
C182        O195   1.261       .  A
C182        C744   1.499       .  S
O183        C193   1.263       .  A
O183       Al185   1.883       .  S
O184        C197   1.263       .  A
O184       Al194   1.921       .  S
Al185       O198   1.912       .  S
Al185       O195   1.923       .  S
Al185       O190   1.774       .  S
O186        C193   1.274       .  A
O186       Al194   1.954       .  S
O187        C196   1.268       .  A
O187       Al194   1.955       .  S
O188       Al194   1.855       .  S
O189        C196   1.256       .  A
O190       Al194   1.778       .  S
O191        C192   1.274       .  A
C192        C724   1.487       .  S
C193        C657   1.483   1_455  S
C196        C824   1.491       .  S
C197        O198   1.261       .  A
C197        C704   1.475       .  S
O199        C214   1.263       .  A
O199       Al207   1.879       .  S
C200        O210   1.257   1_556  A
C200        O201   1.267   1_556  A
C200        C624   1.463       .  S
O201       Al203   1.928       .  S
O202        C204   1.255       .  A
O202       Al203   1.896       .  S
Al203       O211   1.881       .  S
Al203       O213   1.942       .  S
Al203       O212   1.781       .  S
C204        O217   1.256       .  A
C204        C597   1.486       .  S
O205        C215   1.264   1_545  A
O205       Al207   1.895       .  S
O206        C219   1.264       .  A
O206       Al216   1.913       .  S
Al207       O220   1.901       .  S
Al207       O217   1.902       .  S
Al207       O212   1.777       .  S
O208        C215   1.270       .  A
O208       Al216   1.942   1_565  S
O209        C218   1.264       .  A
O209       Al216   1.937       .  S
O210       Al216   1.867       .  S
O211        C218   1.255       .  A
O212       Al216   1.789       .  S
O213        C214   1.271       .  A
C214        C717   1.486       .  S
C215        C584   1.480       .  S
C218        C904   1.485       .  S
C219        O220   1.260       .  A
C219        C644   1.480       .  S
O221        C236   1.257       .  A
O221       Al229   1.876       .  S
C222        O232   1.269       .  A
C222        O223   1.264       .  A
C222        C544   1.486       .  S
O223       Al225   1.898   1_554  S
O224        C226   1.262       .  A
O224       Al225   1.920       .  S
Al225       O233   1.929       .  S
Al225       O235   1.920       .  S
Al225       O234   1.798       .  S
C226        O239   1.254       .  A
C226        C504   1.491   1_455  S
O227        C237   1.256       .  A
O227       Al229   1.905       .  S
O228        C241   1.268       .  A
O228       Al238   1.925       .  S
Al229       O242   1.898       .  S
Al229       O239   1.878       .  S
Al229       O234   1.785       .  S
O230        C237   1.257       .  A
O230       Al238   1.903       .  S
O231        C240   1.254       .  A
O231       Al238   1.885       .  S
O232       Al238   1.921   1_554  S
O233        C240   1.263       .  A
O234       Al238   1.794       .  S
O235        C236   1.263       .  A
C236        C557   1.489       .  S
C237        C577   1.477   1_556  S
C240        C764   1.478       .  S
C241        O242   1.263       .  A
C241        C517   1.480       .  S
O243        C258   1.256       .  A
O243       Al251   1.888       .  S
C244        O254   1.265       .  A
C244        O245   1.260       .  A
C244        C637   1.478       .  S
O245       Al247   1.893       .  S
O246        C248   1.264       .  A
O246       Al247   1.919       .  S
Al247       O255   1.933       .  S
Al247       O257   1.905       .  S
Al247       O256   1.800       .  S
C248        O261   1.262       .  A
C248        C737   1.500   1_565  S
O249        C259   1.260       .  A
O249       Al251   1.907       .  S
O250        C263   1.265       .  A
O250       Al260   1.920       .  S
Al251       O264   1.899       .  S
Al251       O261   1.914       .  S
Al251       O256   1.791       .  S
O252        C259   1.255       .  A
O252       Al260   1.887       .  S
O253        C262   1.256       .  A
O253       Al260   1.882       .  S
O254       Al260   1.913       .  S
O255        C262   1.266       .  A
O256       Al260   1.793       .  S
O257        C258   1.259       .  A
C258        C617   1.467       .  S
C259        C484   1.480       .  S
C262        C784   1.478       .  S
C263        O264   1.262       .  A
C263        C524   1.479       .  S
O265        C280   1.263       .  A
O265       Al273   1.877       .  S
C266        O276   1.256       .  A
C266        O267   1.266       .  A
C266        C564   1.469       .  S
O267       Al269   1.929       .  S
O268        C270   1.257       .  A
O268       Al269   1.915       .  S
Al269       O277   1.891       .  S
Al269       O279   1.955       .  S
Al269       O278   1.781       .  S
C270        O283   1.255       .  A
C270        C464   1.476       .  S
O271        C281   1.264   1_655  A
O271       Al273   1.879       .  S
O272        C285   1.265       .  A
O272       Al282   1.928       .  S
Al273       O286   1.889       .  S
Al273       O283   1.906       .  S
Al273       O278   1.778       .  S
O274        C281   1.273       .  A
O274       Al282   1.948   1_455  S
O275        C284   1.267       .  A
O275       Al282   1.942       .  S
O276       Al282   1.866       .  S
O277        C284   1.258       .  A
O278       Al282   1.791       .  S
O279        C280   1.274       .  A
C280        C437   1.490       .  S
C281        C477   1.477       .  S
C284       C1097   1.485       .  S
C285        O286   1.256       .  A
C285        C537   1.485   1_655  S
O287        C302   1.263       .  A
O287       Al295   1.881       .  S
C288        O298   1.257   1_556  A
C288        O289   1.269   1_556  A
C288        C397   1.475       .  S
O289       Al291   1.942       .  S
O290        C292   1.257       .  A
O290       Al291   1.900       .  S
Al291       O299   1.877       .  S
Al291       O301   1.951       .  S
Al291       O300   1.782       .  S
C292        O305   1.256       .  A
C292        C497   1.479       .  S
O293        C303   1.264       .  A
O293       Al295   1.891       .  S
O294        C307   1.262       .  A
O294       Al304   1.912       .  S
Al295       O308   1.893       .  S
Al295       O305   1.900       .  S
Al295       O300   1.777       .  S
O296        C303   1.272       .  A
O296       Al304   1.949       .  S
O297        C306   1.266       .  A
O297       Al304   1.941       .  S
O298       Al304   1.862       .  S
O299        C306   1.255       .  A
O300       Al304   1.786       .  S
O301        C302   1.273       .  A
C302        C444   1.488       .  S
C303        C384   1.494   1_565  S
C306       C1204   1.489       .  S
C307        O308   1.258       .  A
C307        C424   1.475       .  S
O309        C324   1.262       .  A
O309       Al317   1.902       .  S
C310        O320   1.272       .  A
C310        O311   1.257       .  A
C310        C697   1.487       .  S
O311       Al313   1.858   1_554  S
O312        C314   1.268       .  A
O312       Al313   1.936   1_455  S
Al313       O321   1.933       .  S
Al313       O323   1.913       .  S
Al313       O322   1.789       .  S
C314        O327   1.262   1_455  A
C314        C604   1.485       .  S
O315        C325   1.258       .  A
O315       Al317   1.913       .  S
O316        C329   1.273       .  A
O316       Al326   1.959       .  S
Al317       O330   1.867       .  S
Al317       O327   1.882       .  S
Al317       O322   1.773       .  S
O318        C325   1.257   1_554  A
O318       Al326   1.902   1_554  S
O319        C328   1.256       .  A
O319       Al326   1.887       .  S
O320       Al326   1.954   1_554  S
O321        C328   1.263       .  A
O322       Al326   1.782       .  S
O323        C324   1.264       .  A
C324        C684   1.475       .  S
C325        C377   1.493   1_556  S
C328        C957   1.482       .  S
C329        O330   1.260       .  A
C329        C364   1.491       .  S
O331        C346   1.257       .  A
O331       Al339   1.884       .  S
C332        O342   1.266       .  A
C332        O333   1.259       .  A
C332        C417   1.472       .  S
O333       Al335   1.872       .  S
O334        C336   1.274       .  A
O334       Al335   1.958   1_565  S
Al335       O343   1.950       .  S
Al335       O345   1.928       .  S
Al335       O344   1.789       .  S
C336        O349   1.264   1_565  A
C336        C457   1.496       .  S
O337        C347   1.255       .  A
O337       Al339   1.899       .  S
O338        C351   1.271       .  A
O338       Al348   1.941       .  S
Al339       O352   1.878       .  S
Al339       O349   1.888       .  S
Al339       O344   1.776       .  S
O340        C347   1.257       .  A
O340       Al348   1.906       .  S
O341        C350   1.256       .  A
O341       Al348   1.880       .  S
O342       Al348   1.924       .  S
O343        C350   1.267       .  A
O344       Al348   1.782       .  S
O345        C346   1.265       .  A
C346        C404   1.484   1_545  S
C347        C664   1.487       .  S
C350        C997   1.492       .  S
C351        O352   1.262       .  A
C351        C357   1.486       .  S
C353        C354   1.409       .  A
C353        C358   1.402       .  A
C353        F371   1.358       .  S
C354        C359   1.487       .  S
C354        C355   1.405       .  A
C355        C356   1.395       .  A
C355        F360   1.358       .  S
C356        C357   1.411       .  A
C356        F372   1.358       .  S
C357        C358   1.409       .  A
C358        F361   1.358       .  S
C359        C362   1.409       .  A
C359        C366   1.403       .  A
C362        C363   1.406       .  A
C362        F367   1.358       .  S
C363        C364   1.410       .  A
C363        F369   1.357       .  S
C364        C365   1.412       .  A
C365        C366   1.392       .  A
C365        F368   1.355       .  S
C366        F370   1.359       .  S
C373        C374   1.406       .  A
C373        C378   1.401       .  A
C373        F391   1.358       .  S
C374        C379   1.489       .  S
C374        C375   1.405   1_554  A
C375        C376   1.401       .  A
C375        F380   1.358       .  S
C376        C377   1.413   1_556  A
C376        F392   1.358       .  S
C377        C378   1.411       .  A
C378        F381   1.358       .  S
C379        C382   1.406       .  A
C379        C386   1.404       .  A
C382        C383   1.401       .  A
C382        F387   1.358       .  S
C383        C384   1.412       .  A
C383        F389   1.358       .  S
C384        C385   1.414       .  A
C385        C386   1.401       .  A
C385        F388   1.358   1_545  S
C386        F390   1.358       .  S
C393        C394   1.408       .  A
C393        C398   1.403       .  A
C393        F411   1.358       .  S
C394        C399   1.476       .  S
C394        C395   1.400       .  A
C395        C396   1.395       .  A
C395        F400   1.358       .  S
C396        C397   1.410       .  A
C396        F412   1.358       .  S
C397        C398   1.404       .  A
C398        F401   1.358       .  S
C399        C402   1.406       .  A
C399        C406   1.398       .  A
C402        C403   1.406       .  A
C402        F407   1.357       .  S
C403        C404   1.409       .  A
C403        F409   1.357       .  S
C404        C405   1.413   1_565  A
C405        C406   1.391   1_545  A
C405        F408   1.359       .  S
C406        F410   1.359       .  S
C413        C414   1.400       .  A
C413        C418   1.395       .  A
C413        F431   1.358   1_545  S
C414        C419   1.470   1_545  S
C414        C415   1.405       .  A
C415        C416   1.400       .  A
C415        F420   1.358       .  S
C416        C417   1.405       .  A
C416        F432   1.358       .  S
C417        C418   1.408       .  A
C418        F421   1.358   1_545  S
C419        C422   1.404   1_565  A
C419        C426   1.399       .  A
C422        C423   1.403   1_545  A
C422        F427   1.357       .  S
C423        C424   1.408       .  A
C423        F429   1.357       .  S
C424        C425   1.409       .  A
C425        C426   1.391       .  A
C425        F428   1.358       .  S
C426        F430   1.359       .  S
C433        C434   1.406       .  A
C433        C438   1.395       .  A
C433        F451   1.358       .  S
C434        C439   1.490       .  S
C434        C435   1.409       .  A
C435        C436   1.405       .  A
C435        F440   1.358       .  S
C436        C437   1.411       .  A
C436        F452   1.358       .  S
C437        C438   1.411       .  A
C438        F441   1.358       .  S
C439        C442   1.409       .  A
C439        C446   1.406       .  A
C442        C443   1.403       .  A
C442        F447   1.358       .  S
C443        C444   1.409       .  A
C443        F449   1.357       .  S
C444        C445   1.411       .  A
C445        C446   1.398       .  A
C445        F448   1.358       .  S
C446        F450   1.358       .  S
C453        C454   1.403       .  A
C453        C458   1.401       .  A
C453        F471   1.358       .  S
C454        C459   1.488       .  S
C454        C455   1.407       .  A
C455        C456   1.403       .  A
C455        F460   1.358       .  S
C456        C457   1.411       .  A
C456        F472   1.358       .  S
C457        C458   1.415       .  A
C458        F461   1.358       .  S
C459        C462   1.411       .  A
C459        C466   1.405       .  A
C462        C463   1.406       .  A
C462        F467   1.357       .  S
C463        C464   1.405       .  A
C463        F469   1.358       .  S
C464        C465   1.406       .  A
C465        C466   1.397       .  A
C465        F468   1.359       .  S
C466        F470   1.358       .  S
C473        C474   1.405       .  A
C473        C478   1.402       .  A
C473        F491   1.358       .  S
C474        C479   1.473       .  S
C474        C475   1.400       .  A
C475        C476   1.396       .  A
C475        F480   1.358       .  S
C476        C477   1.409       .  A
C476        F492   1.358       .  S
C477        C478   1.407       .  A
C478        F481   1.358       .  S
C479        C482   1.400       .  A
C479        C486   1.403       .  A
C482        C483   1.397       .  A
C482        F487   1.358       .  S
C483        C484   1.411       .  A
C483        F489   1.358       .  S
C484        C485   1.409       .  A
C485        C486   1.400       .  A
C485        F488   1.358       .  S
C486        F490   1.357       .  S
C493        C494   1.403       .  A
C493        C498   1.397       .  A
C493        F511   1.358       .  S
C494        C499   1.476       .  S
C494        C495   1.403       .  A
C495        C496   1.400       .  A
C495        F500   1.358   1_554  S
C496        C497   1.409       .  A
C496        F512   1.358   1_554  S
C497        C498   1.409       .  A
C498        F501   1.358       .  S
C499        C502   1.405       .  A
C499        C506   1.397   1_554  A
C502        C503   1.404       .  A
C502        F507   1.358       .  S
C503        C504   1.411   1_554  A
C503        F509   1.357       .  S
C504        C505   1.416       .  A
C505        C506   1.395       .  A
C505        F508   1.358   1_655  S
C506        F510   1.358       .  S
C513        C514   1.404       .  A
C513        C518   1.395       .  A
C513        F531   1.358       .  S
C514        C519   1.486       .  S
C514        C515   1.410       .  A
C515        C516   1.407       .  A
C515        F520   1.357       .  S
C516        C517   1.406       .  A
C516        F532   1.357       .  S
C517        C518   1.408       .  A
C518        F521   1.357       .  S
C519        C522   1.404       .  A
C519        C526   1.409       .  A
C522        C523   1.397       .  A
C522        F527   1.358       .  S
C523        C524   1.406       .  A
C523        F529   1.357       .  S
C524        C525   1.406       .  A
C525        C526   1.406       .  A
C525        F528   1.358       .  S
C526        F530   1.358       .  S
C533        C534   1.400       .  A
C533        C538   1.393       .  A
C533        F551   1.359       .  S
C534        C539   1.480       .  S
C534        C535   1.407       .  A
C535        C536   1.407       .  A
C535        F540   1.357       .  S
C536        C537   1.409       .  A
C536        F552   1.357       .  S
C537        C538   1.412       .  A
C538        F541   1.359   1_455  S
C539        C542   1.408       .  A
C539        C546   1.400       .  A
C542        C543   1.403       .  A
C542        F547   1.358       .  S
C543        C544   1.408       .  A
C543        F549   1.358       .  S
C544        C545   1.414       .  A
C545        C546   1.396       .  A
C545        F548   1.358       .  S
C546        F550   1.358       .  S
C553        C554   1.400       .  A
C553        C558   1.393       .  A
C553        F571   1.359       .  S
C554        C559   1.476   1_455  S
C554        C555   1.403   1_455  A
C555        C556   1.403   1_655  A
C555        F560   1.358       .  S
C556        C557   1.413       .  A
C556        F572   1.358       .  S
C557        C558   1.414       .  A
C558        F561   1.357       .  S
C559        C562   1.403       .  A
C559        C566   1.406       .  A
C562        C563   1.398       .  A
C562        F567   1.358   1_655  S
C563        C564   1.407       .  A
C563        F569   1.358       .  S
C564        C565   1.402       .  A
C565        C566   1.399       .  A
C565        F568   1.358       .  S
C566        F570   1.358       .  S
C573        C574   1.405       .  A
C573        C578   1.396       .  A
C573        F591   1.358       .  S
C574        C579   1.485       .  S
C574        C575   1.409       .  A
C575        C576   1.403       .  A
C575        F580   1.358       .  S
C576        C577   1.406       .  A
C576        F592   1.358       .  S
C577        C578   1.407       .  A
C578        F581   1.359   1_554  S
C579        C582   1.406       .  A
C579        C586   1.407       .  A
C582        C583   1.400       .  A
C582        F587   1.358       .  S
C583        C584   1.408       .  A
C583        F589   1.358       .  S
C584        C585   1.407       .  A
C585        C586   1.399       .  A
C585        F588   1.358       .  S
C586        F590   1.358       .  S
C593        C594   1.402       .  A
C593        C598   1.394       .  A
C593        F611   1.358       .  S
C594        C599   1.477   1_554  S
C594        C595   1.403   1_554  A
C595        C596   1.401       .  A
C595        F600   1.358       .  S
C596        C597   1.413   1_556  A
C596        F612   1.358       .  S
C597        C598   1.412       .  A
C598        F601   1.358       .  S
C599        C602   1.404       .  A
C599        C606   1.401       .  A
C602        C603   1.401       .  A
C602        F607   1.358   1_556  S
C603        C604   1.413       .  A
C603        F609   1.358       .  S
C604        C605   1.411       .  A
C605        C606   1.394       .  A
C605        F608   1.358       .  S
C606        F610   1.358       .  S
C613        C614   1.404   1_545  A
C613        C618   1.396   1_545  A
C613        F631   1.358       .  S
C614        C619   1.478   1_565  S
C614        C615   1.407       .  A
C615        C616   1.398       .  A
C615        F620   1.358       .  S
C616        C617   1.403       .  A
C616        F632   1.357       .  S
C617        C618   1.405       .  A
C618        F621   1.358   1_565  S
C619        C622   1.408       .  A
C619        C626   1.404       .  A
C622        C623   1.398       .  A
C622        F627   1.358       .  S
C623        C624   1.401       .  A
C623        F629   1.358       .  S
C624        C625   1.404       .  A
C625        C626   1.397       .  A
C625        F628   1.358       .  S
C626        F630   1.358   1_545  S
C633        C634   1.403       .  A
C633        C638   1.397       .  A
C633        F651   1.358       .  S
C634        C639   1.482       .  S
C634        C635   1.409       .  A
C635        C636   1.400       .  A
C635        F640   1.358       .  S
C636        C637   1.404       .  A
C636        F652   1.358       .  S
C637        C638   1.411       .  A
C638        F641   1.359       .  S
C639        C642   1.407       .  A
C639        C646   1.404       .  A
C642        C643   1.403       .  A
C642        F647   1.358       .  S
C643        C644   1.408   1_565  A
C643        F649   1.357       .  S
C644        C645   1.409       .  A
C645        C646   1.393   1_545  A
C645        F648   1.359       .  S
C646        F650   1.359       .  S
C653        C654   1.401       .  A
C653        C658   1.399       .  A
C653        F671   1.358       .  S
C654        C659   1.477       .  S
C654        C655   1.404       .  A
C655        C656   1.401       .  A
C655        F660   1.358       .  S
C656        C657   1.408       .  A
C656        F672   1.358       .  S
C657        C658   1.412       .  A
C658        F661   1.358   1_655  S
C659        C662   1.401       .  A
C659        C666   1.403       .  A
C662        C663   1.398       .  A
C662        F667   1.358       .  S
C663        C664   1.414       .  A
C663        F669   1.358       .  S
C664        C665   1.411       .  A
C665        C666   1.401       .  A
C665        F668   1.358       .  S
C666        F670   1.358       .  S
C673        C674   1.408       .  A
C673        C678   1.406       .  A
C673        F691   1.357       .  S
C674        C679   1.475       .  S
C674        C675   1.399       .  A
C675        C676   1.391       .  A
C675        F680   1.359       .  S
C676        C677   1.411       .  A
C676        F692   1.359       .  S
C677        C678   1.405       .  A
C678        F681   1.357       .  S
C679        C682   1.405       .  A
C679        C686   1.402   1_455  A
C682        C683   1.406       .  A
C682        F687   1.357       .  S
C683        C684   1.408   1_455  A
C683        F689   1.357       .  S
C684        C685   1.405       .  A
C685        C686   1.390       .  A
C685        F688   1.356       .  S
C686        F690   1.359       .  S
C693        C694   1.408       .  A
C693        C698   1.406       .  A
C693        F711   1.357       .  S
C694        C699   1.483       .  S
C694        C695   1.401   1_655  A
C695        C696   1.394   1_455  A
C695        F700   1.359       .  S
C696        C697   1.414       .  A
C696        F712   1.359   1_655  S
C697        C698   1.409       .  A
C698        F701   1.357       .  S
C699        C702   1.402       .  A
C699        C706   1.410   1_655  A
C702        C703   1.397       .  A
C702        F707   1.358       .  S
C703        C704   1.408   1_655  A
C703        F709   1.359       .  S
C704        C705   1.403       .  A
C705        C706   1.404       .  A
C705        F708   1.357       .  S
C706        F710   1.358       .  S
C713        C714   1.404       .  A
C713        C718   1.393       .  A
C713        F731   1.358       .  S
C714        C719   1.482       .  S
C714        C715   1.407       .  A
C715        C716   1.403       .  A
C715        F720   1.358       .  S
C716        C717   1.411       .  A
C716        F732   1.358       .  S
C717        C718   1.410       .  A
C718        F721   1.358       .  S
C719        C722   1.407       .  A
C719        C726   1.403       .  A
C722        C723   1.403       .  A
C722        F727   1.358       .  S
C723        C724   1.409       .  A
C723        F729   1.357       .  S
C724        C725   1.413       .  A
C725        C726   1.394       .  A
C725        F728   1.359       .  S
C726        F730   1.358       .  S
C733        C734   1.407       .  A
C733        C738   1.405       .  A
C733        F751   1.358       .  S
C734        C739   1.493       .  S
C734        C735   1.404       .  A
C735        C736   1.405       .  A
C735        F740   1.358       .  S
C736        C737   1.416       .  A
C736        F752   1.358       .  S
C737        C738   1.411       .  A
C738        F741   1.357       .  S
C739        C742   1.404       .  A
C739        C746   1.407       .  A
C742        C743   1.402       .  A
C742        F747   1.358       .  S
C743        C744   1.414       .  A
C743        F749   1.358       .  S
C744        C745   1.413       .  A
C745        C746   1.407       .  A
C745        F748   1.358       .  S
C746        F750   1.357       .  S
C753        C754   1.406       .  A
C753        C758   1.405       .  A
C753        F771   1.357   1_554  S
C754        C759   1.489       .  S
C754        C755   1.407       .  A
C755        C756   1.403       .  A
C755        F760   1.358       .  S
C756        C757   1.407       .  A
C756        F772   1.358       .  S
C757        C758   1.408       .  A
C758        F761   1.358       .  S
C759        C762   1.407       .  A
C759        C766   1.406   1_554  A
C762        C763   1.406       .  A
C762        F767   1.357       .  S
C763        C764   1.407   1_554  A
C763        F769   1.358       .  S
C764        C765   1.406       .  A
C765        C766   1.402       .  A
C765        F768   1.358       .  S
C766        F770   1.358       .  S
C773        C774   1.408       .  A
C773        C778   1.411       .  A
C773        F791   1.357       .  S
C774        C779   1.491       .  S
C774        C775   1.406       .  A
C775        C776   1.398       .  A
C775        F780   1.358       .  S
C776        C777   1.406       .  A
C776        F792   1.359       .  S
C777        C778   1.409       .  A
C778        F781   1.357       .  S
C779        C782   1.408       .  A
C779        C786   1.406       .  A
C782        C783   1.410       .  A
C782        F787   1.357       .  S
C783        C784   1.408       .  A
C783        F789   1.358       .  S
C784        C785   1.405       .  A
C785        C786   1.397       .  A
C785        F788   1.358       .  S
C786        F790   1.358       .  S
C793        C794   1.409       .  A
C793        C798   1.408       .  A
C793        F811   1.358       .  S
C794        C799   1.489       .  S
C794        C795   1.404       .  A
C795        C796   1.394       .  A
C795        F800   1.359       .  S
C796        C797   1.413       .  A
C796        F812   1.358       .  S
C797        C798   1.411       .  A
C798        F801   1.357       .  S
C799        C802   1.411       .  A
C799        C806   1.406       .  A
C802        C803   1.405       .  A
C802        F807   1.358       .  S
C803        C804   1.404       .  A
C803        F809   1.358       .  S
C804        C805   1.406       .  A
C805        C806   1.397       .  A
C805        F808   1.359       .  S
C806        F810   1.358       .  S
C813        C814   1.405       .  A
C813        C818   1.408       .  A
C813        F831   1.357       .  S
C814        C819   1.489       .  S
C814        C815   1.404       .  A
C815        C816   1.402       .  A
C815        F820   1.358       .  S
C816        C817   1.411       .  A
C816        F832   1.358       .  S
C817        C818   1.412       .  A
C818        F821   1.357       .  S
C819        C822   1.404       .  A
C819        C826   1.406       .  A
C822        C823   1.401       .  A
C822        F827   1.358       .  S
C823        C824   1.410       .  A
C823        F829   1.358       .  S
C824        C825   1.412       .  A
C825        C826   1.409       .  A
C825        F828   1.358       .  S
C826        F830   1.357       .  S
C833        C834   1.403       .  A
C833        C838   1.402       .  A
C833        F851   1.358       .  S
C834        C839   1.483       .  S
C834        C835   1.404       .  A
C835        C836   1.402       .  A
C835        F840   1.358       .  S
C836        C837   1.410       .  A
C836        F852   1.358       .  S
C837        C838   1.412       .  A
C838        F841   1.358       .  S
C839        C842   1.403       .  A
C839        C846   1.404       .  A
C842        C843   1.402       .  A
C842        F847   1.358       .  S
C843        C844   1.410       .  A
C843        F849   1.358       .  S
C844        C845   1.411       .  A
C845        C846   1.403       .  A
C845        F848   1.358       .  S
C846        F850   1.358       .  S
C853        C854   1.406       .  A
C853        C858   1.399       .  A
C853        F871   1.358       .  S
C854        C859   1.470       .  S
C854        C855   1.401       .  A
C855        C856   1.395       .  A
C855        F860   1.358       .  S
C856        C857   1.405       .  A
C856        F872   1.358       .  S
C857        C858   1.402       .  A
C858        F861   1.358       .  S
C859        C862   1.403       .  A
C859        C866   1.401       .  A
C862        C863   1.402       .  A
C862        F867   1.357       .  S
C863        C864   1.408       .  A
C863        F869   1.357       .  S
C864        C865   1.408       .  A
C865        C866   1.391       .  A
C865        F868   1.358       .  S
C866        F870   1.359       .  S
C873        C874   1.399       .  A
C873        C878   1.395       .  A
C873        F891   1.358       .  S
C874        C879   1.481       .  S
C874        C875   1.407       .  A
C875        C876   1.408       .  A
C875        F880   1.357       .  S
C876        C877   1.411       .  A
C876        F892   1.357       .  S
C877        C878   1.415       .  A
C878        F881   1.358       .  S
C879        C882   1.406       .  A
C879        C886   1.399       .  A
C882        C883   1.408       .  A
C882        F887   1.357       .  S
C883        C884   1.410       .  A
C883        F889   1.357       .  S
C884        C885   1.415       .  A
C885        C886   1.395       .  A
C885        F888   1.359       .  S
C886        F890   1.358       .  S
C893        C894   1.407   1_556  A
C893        C898   1.402       .  A
C893        F911   1.358       .  S
C894        C899   1.487       .  S
C894        C895   1.406       .  A
C895        C896   1.404       .  A
C895        F900   1.358       .  S
C896        C897   1.408   1_554  A
C896        F912   1.358       .  S
C897        C898   1.406       .  A
C898        F901   1.358       .  S
C899        C902   1.405       .  A
C899        C906   1.405       .  A
C902        C903   1.405       .  A
C902        F907   1.357   1_554  S
C903        C904   1.409       .  A
C903        F909   1.357       .  S
C904        C905   1.408       .  A
C905        C906   1.401       .  A
C905        F908   1.358       .  S
C906        F910   1.358       .  S
C913        C914   1.407       .  A
C913        C918   1.401       .  A
C913        F931   1.358       .  S
C914        C919   1.481       .  S
C914        C915   1.405       .  A
C915        C916   1.391       .  A
C915        F920   1.358       .  S
C916        C917   1.408       .  A
C916        F932   1.358       .  S
C917        C918   1.410       .  A
C918        F921   1.358       .  S
C919        C922   1.404       .  A
C919        C926   1.408       .  A
C922        C923   1.392       .  A
C922        F927   1.358       .  S
C923        C924   1.410       .  A
C923        F929   1.359       .  S
C924        C925   1.407       .  A
C925        C926   1.402       .  A
C925        F928   1.357       .  S
C926        F930   1.358       .  S
C933        C934   1.404       .  A
C933        C938   1.402       .  A
C933        F951   1.358       .  S
C934        C939   1.484       .  S
C934        C935   1.404       .  A
C935        C936   1.399       .  A
C935        F940   1.358   1_554  S
C936        C937   1.412       .  A
C936        F952   1.358   1_554  S
C937        C938   1.413       .  A
C938        F941   1.358       .  S
C939        C942   1.404       .  A
C939        C946   1.404       .  A
C942        C943   1.400       .  A
C942        F947   1.358       .  S
C943        C944   1.414       .  A
C943        F949   1.358       .  S
C944        C945   1.412       .  A
C945        C946   1.400       .  A
C945        F948   1.358       .  S
C946        F950   1.358       .  S
C953        C954   1.404       .  A
C953        C958   1.404       .  A
C953        F971   1.357       .  S
C954        C959   1.484       .  S
C954        C955   1.406   1_554  A
C955        C956   1.400       .  A
C955        F960   1.358       .  S
C956        C957   1.407       .  A
C956        F972   1.358       .  S
C957        C958   1.410   1_556  A
C958        F961   1.358       .  S
C959        C962   1.404       .  A
C959        C966   1.407       .  A
C962        C963   1.401       .  A
C962        F967   1.357   1_554  S
C963        C964   1.405       .  A
C963        F969   1.358       .  S
C964        C965   1.404       .  A
C965        C966   1.403       .  A
C965        F968   1.358       .  S
C966        F970   1.358       .  S
C973        C974   1.403   1_556  A
C973        C978   1.396       .  A
C973        F991   1.358       .  S
C974        C979   1.477   1_554  S
C974        C975   1.405       .  A
C975        C976   1.399       .  A
C975        F980   1.358       .  S
C976        C977   1.408       .  A
C976        F992   1.358       .  S
C977        C978   1.409   1_554  A
C978        F981   1.358       .  S
C979        C982   1.405       .  A
C979        C986   1.401       .  A
C982        C983   1.398       .  A
C982        F987   1.358   1_556  S
C983        C984   1.409       .  A
C983        F989   1.358       .  S
C984        C985   1.414       .  A
C985        C986   1.397       .  A
C985        F988   1.358       .  S
C986        F990   1.358       .  S
C993        C994   1.404       .  A
C993        C998   1.401       .  A
C993       F1011   1.358       .  S
C994        C999   1.488       .  S
C994        C995   1.405       .  A
C995        C996   1.409       .  A
C995       F1000   1.357       .  S
C996        C997   1.412       .  A
C996       F1012   1.357       .  S
C997        C998   1.410       .  A
C998       F1001   1.358       .  S
C999       C1002   1.406       .  A
C999       C1006   1.406       .  A
C1002      C1003   1.402       .  A
C1002      F1007   1.358       .  S
C1003      C1004   1.405       .  A
C1003      F1009   1.358       .  S
C1004      C1005   1.407       .  A
C1005      C1006   1.406       .  A
C1005      F1008   1.358       .  S
C1006      F1010   1.357       .  S
C1013      C1014   1.406       .  A
C1013      C1018   1.402       .  A
C1013      F1031   1.358       .  S
C1014      C1019   1.488       .  S
C1014      C1015   1.407       .  A
C1015      C1016   1.402       .  A
C1015      F1020   1.358       .  S
C1016      C1017   1.407       .  A
C1016      F1032   1.358       .  S
C1017      C1018   1.408       .  A
C1018      F1021   1.358       .  S
C1019      C1022   1.403       .  A
C1019      C1026   1.406       .  A
C1022      C1023   1.402       .  A
C1022      F1027   1.358       .  S
C1023      C1024   1.416       .  A
C1023      F1029   1.358       .  S
C1024      C1025   1.411       .  A
C1025      C1026   1.403       .  A
C1025      F1028   1.357       .  S
C1026      F1030   1.358       .  S
C1033      C1034   1.400       .  A
C1033      C1038   1.398       .  A
C1033      F1051   1.358       .  S
C1034      C1039   1.481       .  S
C1034      C1035   1.407       .  A
C1035      C1036   1.403       .  A
C1035      F1040   1.358       .  S
C1036      C1037   1.408       .  A
C1036      F1052   1.357       .  S
C1037      C1038   1.415       .  A
C1038      F1041   1.358       .  S
C1039      C1042   1.406       .  A
C1039      C1046   1.402       .  A
C1042      C1043   1.406       .  A
C1042      F1047   1.357       .  S
C1043      C1044   1.410       .  A
C1043      F1049   1.357       .  S
C1044      C1045   1.410       .  A
C1045      C1046   1.396       .  A
C1045      F1048   1.358       .  S
C1046      F1050   1.358       .  S
C1053      C1054   1.404       .  A
C1053      C1058   1.397       .  A
C1053      F1071   1.358       .  S
C1054      C1059   1.477       .  S
C1054      C1055   1.401       .  A
C1055      C1056   1.400       .  A
C1055      F1060   1.358       .  S
C1056      C1057   1.415       .  A
C1056      F1072   1.358       .  S
C1057      C1058   1.409       .  A
C1058      F1061   1.358       .  S
C1059      C1062   1.401       .  A
C1059      C1066   1.408       .  A
C1062      C1063   1.394       .  A
C1062      F1067   1.358       .  S
C1063      C1064   1.408       .  A
C1063      F1069   1.359       .  S
C1064      C1065   1.405       .  A
C1065      C1066   1.403       .  A
C1065      F1068   1.358       .  S
C1066      F1070   1.358       .  S
C1073      C1074   1.406       .  A
C1073      C1078   1.398       .  A
C1073      F1091   1.358       .  S
C1074      C1079   1.485       .  S
C1074      C1075   1.408       .  A
C1075      C1076   1.405       .  A
C1075      F1080   1.358       .  S
C1076      C1077   1.405       .  A
C1076      F1092   1.358       .  S
C1077      C1078   1.403       .  A
C1078      F1081   1.358       .  S
C1079      C1082   1.409       .  A
C1079      C1086   1.405       .  A
C1082      C1083   1.406       .  A
C1082      F1087   1.357       .  S
C1083      C1084   1.405       .  A
C1083      F1089   1.357       .  S
C1084      C1085   1.405       .  A
C1085      C1086   1.397       .  A
C1085      F1088   1.359       .  S
C1086      F1090   1.358       .  S
C1093      C1094   1.409       .  A
C1093      C1098   1.406       .  A
C1093      F1111   1.358       .  S
C1094      C1099   1.496       .  S
C1094      C1095   1.407       .  A
C1095      C1096   1.405       .  A
C1095      F1100   1.358       .  S
C1096      C1097   1.408       .  A
C1096      F1112   1.358       .  S
C1097      C1098   1.407       .  A
C1098      F1101   1.358       .  S
C1099      C1102   1.408       .  A
C1099      C1106   1.409       .  A
C1102      C1103   1.407       .  A
C1102      F1107   1.358       .  S
C1103      C1104   1.410       .  A
C1103      F1109   1.358       .  S
C1104      C1105   1.405       .  A
C1105      C1106   1.402       .  A
C1105      F1108   1.358       .  S
C1106      F1110   1.358       .  S
C1113      C1114   1.405       .  A
C1113      C1118   1.400       .  A
C1113      F1131   1.358       .  S
C1114      C1119   1.481       .  S
C1114      C1115   1.405       .  A
C1115      C1116   1.401       .  A
C1115      F1120   1.358       .  S
C1116      C1117   1.408       .  A
C1116      F1132   1.358       .  S
C1117      C1118   1.407       .  A
C1118      F1121   1.358       .  S
C1119      C1122   1.403       .  A
C1119      C1126   1.402       .  A
C1122      C1123   1.400       .  A
C1122      F1127   1.358       .  S
C1123      C1124   1.412       .  A
C1123      F1129   1.358       .  S
C1124      C1125   1.415       .  A
C1125      C1126   1.401       .  A
C1125      F1128   1.358       .  S
C1126      F1130   1.358       .  S
C1133      C1134   1.408       .  A
C1133      C1138   1.403       .  A
C1133      F1151   1.358       .  S
C1134      C1139   1.484       .  S
C1134      C1135   1.403       .  A
C1135      C1136   1.398       .  A
C1135      F1140   1.358       .  S
C1136      C1137   1.411       .  A
C1136      F1152   1.358       .  S
C1137      C1138   1.407       .  A
C1138      F1141   1.358       .  S
C1139      C1142   1.403       .  A
C1139      C1146   1.407       .  A
C1142      C1143   1.397       .  A
C1142      F1147   1.358       .  S
C1143      C1144   1.413       .  A
C1143      F1149   1.358       .  S
C1144      C1145   1.409       .  A
C1145      C1146   1.402       .  A
C1145      F1148   1.358       .  S
C1146      F1150   1.358       .  S
C1153      C1154   1.406       .  A
C1153      C1158   1.400       .  A
C1153      F1171   1.358       .  S
C1154      C1159   1.469       .  S
C1154      C1155   1.399       .  A
C1155      C1156   1.393       .  A
C1155      F1160   1.358       .  S
C1156      C1157   1.407       .  A
C1156      F1172   1.358       .  S
C1157      C1158   1.403       .  A
C1158      F1161   1.358       .  S
C1159      C1162   1.398       .  A
C1159      C1166   1.404       .  A
C1162      C1163   1.394       .  A
C1162      F1167   1.358       .  S
C1163      C1164   1.412       .  A
C1163      F1169   1.358       .  S
C1164      C1165   1.408       .  A
C1165      C1166   1.397       .  A
C1165      F1168   1.358       .  S
C1166      F1170   1.358       .  S
C1173      C1174   1.406       .  A
C1173      C1178   1.401       .  A
C1173      F1191   1.358       .  S
C1174      C1179   1.475       .  S
C1174      C1175   1.398       .  A
C1175      C1176   1.394       .  A
C1175      F1180   1.358       .  S
C1176      C1177   1.416       .  A
C1176      F1192   1.358       .  S
C1177      C1178   1.408       .  A
C1178      F1181   1.358       .  S
C1179      C1182   1.399       .  A
C1179      C1186   1.406       .  A
C1182      C1183   1.392       .  A
C1182      F1187   1.359       .  S
C1183      C1184   1.412       .  A
C1183      F1189   1.359       .  S
C1184      C1185   1.408       .  A
C1185      C1186   1.404       .  A
C1185      F1188   1.357       .  S
C1186      F1190   1.357       .  S
C1193      C1194   1.405       .  A
C1193      C1198   1.403       .  A
C1193      F1211   1.358       .  S
C1194      C1199   1.484       .  S
C1194      C1195   1.406   1_554  A
C1195      C1196   1.402       .  A
C1195      F1200   1.358       .  S
C1196      C1197   1.406       .  A
C1196      F1212   1.358       .  S
C1197      C1198   1.408   1_556  A
C1198      F1201   1.358       .  S
C1199      C1202   1.403       .  A
C1199      C1206   1.404       .  A
C1202      C1203   1.399       .  A
C1202      F1207   1.358       .  S
C1203      C1204   1.411       .  A
C1203      F1209   1.358       .  S
C1204      C1205   1.411       .  A
C1205      C1206   1.406       .  A
C1205      F1208   1.357       .  S
C1206      F1210   1.357   1_554  S
C1213      C1214   1.405       .  A
C1213      C1218   1.399       .  A
C1213      F1231   1.358       .  S
C1214      C1219   1.479       .  S
C1214      C1215   1.403   1_554  A
C1215      C1216   1.397       .  A
C1215      F1220   1.358       .  S
C1216      C1217   1.409       .  A
C1216      F1232   1.358       .  S
C1217      C1218   1.410   1_556  A
C1218      F1221   1.358       .  S
C1219      C1222   1.405       .  A
C1219      C1226   1.404       .  A
C1222      C1223   1.399       .  A
C1222      F1227   1.358   1_554  S
C1223      C1224   1.408       .  A
C1223      F1229   1.358       .  S
C1224      C1225   1.408       .  A
C1225      C1226   1.396       .  A
C1225      F1228   1.358       .  S
C1226      F1230   1.358       .  S
C1233      C1234   1.409       .  A
C1233      C1238   1.406       .  A
C1233      F1251   1.357       .  S
C1234      C1239   1.484       .  S
C1234      C1235   1.402       .  A
C1235      C1236   1.397       .  A
C1235      F1240   1.358       .  S
C1236      C1237   1.410       .  A
C1236      F1252   1.358       .  S
C1237      C1238   1.406       .  A
C1238      F1241   1.358       .  S
C1239      C1242   1.407       .  A
C1239      C1246   1.401       .  A
C1242      C1243   1.407       .  A
C1242      F1247   1.357       .  S
C1243      C1244   1.410       .  A
C1243      F1249   1.357       .  S
C1244      C1245   1.413       .  A
C1245      C1246   1.396       .  A
C1245      F1248   1.358       .  S
C1246      F1250   1.358       .  S
C1253      C1254   1.403       .  A
C1253      C1258   1.392       .  A
C1253      F1271   1.359       .  S
C1254      C1259   1.485       .  S
C1254      C1255   1.409       .  A
C1255      C1256   1.406       .  A
C1255      F1260   1.357       .  S
C1256      C1257   1.407       .  A
C1256      F1272   1.357       .  S
C1257      C1258   1.409       .  A
C1258      F1261   1.357       .  S
C1259      C1262   1.409       .  A
C1259      C1266   1.404       .  A
C1262      C1263   1.400       .  A
C1262      F1267   1.358       .  S
C1263      C1264   1.405       .  A
C1263      F1269   1.358       .  S
C1264      C1265   1.410       .  A
C1265      C1266   1.399       .  A
C1265      F1268   1.358       .  S
C1266      F1270   1.358       .  S
C1273      C1274   1.407       .  A
C1273      C1278   1.404       .  A
C1273      F1291   1.357       .  S
C1274      C1279   1.485       .  S
C1274      C1275   1.403       .  A
C1275      C1276   1.395       .  A
C1275      F1280   1.359       .  S
C1276      C1277   1.413       .  A
C1276      F1292   1.356       .  S
C1277      C1278   1.410       .  A
C1278      F1281   1.357       .  S
C1279      C1282   1.404       .  A
C1279      C1286   1.408       .  A
C1282      C1283   1.394       .  A
C1282      F1287   1.358       .  S
C1283      C1284   1.410       .  A
C1283      F1289   1.358       .  S
C1284      C1285   1.409       .  A
C1285      C1286   1.404       .  A
C1285      F1288   1.358       .  S
C1286      F1290   1.358       .  S
C1293      C1294   1.407       .  A
C1293      C1298   1.404       .  A
C1293      F1311   1.358       .  S
C1294      C1299   1.488       .  S
C1294      C1295   1.404   1_554  A
C1295      C1296   1.398       .  A
C1295      F1300   1.358       .  S
C1296      C1297   1.412   1_556  A
C1296      F1312   1.358       .  S
C1297      C1298   1.411       .  A
C1298      F1301   1.358       .  S
C1299      C1302   1.404       .  A
C1299      C1306   1.407       .  A
C1302      C1303   1.400       .  A
C1302      F1307   1.358       .  S
C1303      C1304   1.413       .  A
C1303      F1309   1.358       .  S
C1304      C1305   1.411       .  A
C1305      C1306   1.401       .  A
C1305      F1308   1.358       .  S
C1306      F1310   1.358   1_554  S
