geometry optimzed in LAMMPS
_audit_creation_date              2020-12-01 
_audit_creation_method            'lammps2cif' 
_symmetry_space_group_name_H-M    'P1' 
_symmetry_Int_Tables_number       1 
_symmetry_cell_setting            triclinic 
loop_ 
_symmetry_equiv_pos_as_xyz 
  x,y,z 
_cell_length_a                    56.85751738 
_cell_length_b                    56.5701749335928 
_cell_length_c                    37.192500200940536 
_cell_angle_alpha                 89.80946658688478 
_cell_angle_beta                  90.20496897201258 
_cell_angle_gamma                 90.12662204730049 
loop_ 
_atom_site_label 
_atom_site_type_symbol 
_atom_site_fract_x 
_atom_site_fract_y 
_atom_site_fract_z 
_atom_site_charge 
Zr1        Zr  0.59317937  0.04781864  0.65906534     2.17500
O2          O  0.62110756  0.02116315  0.63038328    -0.51300
O3          O  0.56583768  0.02755690  0.61735840    -0.74600
O4          O  0.60007940  0.01104089  0.69317811    -0.81300
O5          O  0.61364995  0.10067963  0.60099229    -0.83100
O6          O  0.58278835  0.01385658  0.74798498    -0.78700
O7          O  0.62124659  0.06201791  0.61308974    -0.90300
O8          O  0.52960527  0.04253465  0.62714788    -0.76300
O9          O  0.55797586  0.04477021  0.69380790    -0.85800
O10         O  0.56645992  0.07632797  0.63493566    -0.85500
O11         O  0.60422514  0.05644476  0.72064818    -0.72200
O12         O  0.61142718  0.08574962  0.66773981    -0.84400
Zr13       Zr  0.56041053  0.11969172  0.73926818     2.26400
Zr14       Zr  0.56840062  0.05388970  0.75482864     2.06300
Zr15       Zr  0.58448639  0.11408022  0.64365361     2.10000
Zr16       Zr  0.53168247  0.07369329  0.67037261     1.78800
O17         O  0.61145790  0.14624791  0.62941518    -0.93200
O18         O  0.50286181  0.04585642  0.69418982    -0.41000
O19         O  0.54917627  0.11165287  0.67820886    -0.77600
O20         O  0.54104105  0.08219206  0.73157914    -0.96300
O21         O  0.58696937  0.09147238  0.76357212    -0.89600
O22         O  0.59533022  0.12338148  0.70442128    -0.92500
C23         C  0.54352918  0.02840895  0.61108155     1.01300
C24         C  0.62505788  0.08146873  0.59573773     1.14200
C25         C  0.59436167  0.00247375  0.72409188     1.05000
O26         O  0.53727324  0.02612260  0.77026134    -0.94600
O27         O  0.54468028  0.06897318  0.80465214    -0.90400
O28         O  0.54100742  0.10858361  0.79544264    -0.83500
C29         C  0.53716163  0.08958128  0.81360912     1.11600
O30         O  0.65880288  0.07398250  0.72033312    -0.96600
Zr31       Zr  0.62173728  0.09483855  0.72866920     1.88900
O32         O  0.58795384  0.14337908  0.77407529    -0.73200
O33         O  0.59192949  0.04612317  0.80838695    -0.52500
O34         O  0.63590414  0.07928217  0.78597846    -0.97200
O35         O  0.65221253  0.11876869  0.70029916    -0.54400
O36         O  0.62500164  0.12956832  0.76713640    -0.73700
C37         C  0.61015067  0.14423006  0.78032030     0.98600
O38         O  0.53092410  0.14459516  0.76787901    -0.62600
O39         O  0.56407399  0.11775651  0.58610229    -0.57400
O40         O  0.54971078  0.15444940  0.70385533    -0.94100
O41         O  0.56328693  0.15110270  0.64662122    -0.92500
O42         O  0.51292570  0.09170396  0.61808794    -0.92800
O43         O  0.49431962  0.09324323  0.68183325    -0.91600
C44         C  0.55203287  0.16191219  0.67141587     1.17400
H45         H  0.56345562  0.07359172  0.60972597     0.33400
H46         H  0.52644886  0.08161968  0.74470702     0.44200
H47         H  0.60170859  0.13920726  0.70549988     0.37800
H48         H  0.61557701  0.04511553  0.72940090     0.34200
H49         H  0.49009334  0.04554731  0.67601736     0.26000
H50         H  0.58382521  0.03278971  0.82045357     0.32000
H51         H  0.63056236  0.09068512  0.80434177     0.37900
H52         H  0.52267195  0.08701574  0.59731031     0.32300
H53         H  0.56813621  0.13376878  0.57724736     0.31200
H54         H  0.60961939  0.14878845  0.60319776     0.32900
H55         H  0.64583066  0.13503255  0.70004827     0.31900
H56         H  0.49537122  0.09874284  0.70702745     0.35900
H57         H  0.53804018  0.16055388  0.76957516     0.28600
H58         H  0.61286555  0.00581688  0.62787829     0.32800
H59         H  0.66992186  0.08116842  0.73771998     0.35700
H60         H  0.57233158  0.10692350  0.56958597     0.28300
H61         H  0.51788735  0.14617372  0.75031317     0.41200
H62         H  0.52283227  0.03311014  0.75981776     0.31200
H63         H  0.51040982  0.03016384  0.69212154     0.38800
H64         H  0.65196755  0.11394941  0.67472610     0.30700
H65         H  0.60674420  0.03922755  0.79929898     0.30700
H66         H  0.63366848  0.01831380  0.64839610     0.31000
Zr67       Zr  0.40794417  0.91794380  0.36879098     2.17500
O68         O  0.38410960  0.94999985  0.39285989    -0.51300
O69         O  0.43582309  0.93820366  0.40962529    -0.74600
O70         O  0.38251538  0.90545092  0.41917710    -0.81300
O71         O  0.41360235  0.94953553  0.27692121    -0.83100
O72         O  0.39154658  0.86752253  0.43393659    -0.78700
O73         O  0.39662405  0.95243122  0.33194691    -0.90300
O74         O  0.47142450  0.92028026  0.40650422    -0.76300
O75         O  0.43507697  0.89005295  0.39335114    -0.85800
O76         O  0.44290360  0.92130604  0.33347339    -0.85500
O77         O  0.38897893  0.87982064  0.36129161    -0.72200
O78         O  0.39694423  0.90869222  0.30759838    -0.84400
Zr79       Zr  0.44141143  0.84572479  0.29317030     2.26400
Zr80       Zr  0.41649294  0.85217339  0.38683700     2.06300
Zr81       Zr  0.43219957  0.91107108  0.27289019     2.10000
Zr82       Zr  0.46983503  0.89319673  0.35770426     1.78800
O83         O  0.40937802  0.91375990  0.21746569    -0.93200
O84         O  0.49341103  0.87408656  0.40440223    -0.34600
O85         O  0.45986828  0.88365257  0.29743997    -0.77600
O86         O  0.45251775  0.85501283  0.35384474    -0.96300
O87         O  0.40596209  0.84220281  0.32642170    -0.89600
O88         O  0.41468499  0.87289587  0.26609075    -0.92500
C89         C  0.45731893  0.93531263  0.41985772     1.01300
C90         C  0.40115122  0.96052635  0.30024102     1.14200
C91         C  0.37993573  0.88667464  0.43857003     1.05000
O92         O  0.43447280  0.84485513  0.44531113    -0.94600
O93         O  0.43563938  0.81363501  0.38473087    -0.90400
O94         O  0.44956876  0.81036468  0.32774627    -0.83500
C95         C  0.44655728  0.80252185  0.35976992     1.11600
O96         O  0.34278887  0.89053505  0.31293971    -0.96600
Zr97       Zr  0.37964831  0.87021619  0.30039987     1.88900
O98         O  0.41578302  0.82370134  0.25335392    -0.73200
O99         O  0.38590747  0.82248749  0.39563737    -0.52500
O100        O  0.35015840  0.84306705  0.32414750    -0.97200
O101        O  0.36123012  0.88623909  0.24629376    -0.54400
O102        O  0.37840504  0.83664467  0.25998671    -0.73700
C103        C  0.39374655  0.82275844  0.24629468     0.98600
O104        O  0.46812295  0.81471824  0.27315304    -0.62600
O105        O  0.46109370  0.94014837  0.25302925    -0.57400
O106        O  0.46776666  0.85834588  0.24564062    -0.94100
O107        O  0.45846399  0.89549383  0.22726605    -0.92500
O108        O  0.49569753  0.92485223  0.33722973    -0.92800
O109        O  0.50588086  0.87576318  0.33446351    -0.91600
C110        C  0.47010287  0.87615697  0.22453382     1.17400
H111        H  0.44917631  0.93717315  0.33462258     0.33400
H112        H  0.46435631  0.84440307  0.36306027     0.44200
H113        H  0.41209638  0.86938156  0.24098593     0.37800
H114        H  0.37381323  0.87870808  0.37265443     0.34200
H115        H  0.50130845  0.88705245  0.41761547     0.26000
H116        H  0.38944177  0.81536718  0.41939839     0.32000
H117        H  0.35845602  0.82780883  0.32706539     0.37900
H118        H  0.49239213  0.92630535  0.31116167     0.32300
H119        H  0.45479108  0.94627454  0.22996357     0.31200
H120        H  0.41088175  0.93043787  0.20965861     0.32900
H121        H  0.36991913  0.87917990  0.22598286     0.31900
H122        H  0.51893831  0.88430494  0.34643685     0.35900
H123        H  0.48421500  0.82125156  0.27575050     0.28600
H124        H  0.38876834  0.95147529  0.41843732     0.32800
H125        H  0.33053182  0.88199079  0.29912806     0.35700
H126        H  0.45968827  0.95353677  0.26995012     0.28300
H127        H  0.46557672  0.81313703  0.24693305     0.41200
H128        H  0.42373754  0.83353968  0.45732886     0.31200
H129        H  0.48178878  0.86760671  0.42159016     0.38800
H130        H  0.36575854  0.90314732  0.24599045     0.30700
H131        H  0.37127155  0.83158247  0.39943465     0.30700
H132        H  0.36774860  0.94397937  0.39338836     0.31000
Zr133      Zr  0.68556677  0.82639295  0.91212064     2.17500
O134        O  0.71340739  0.84956948  0.87662497    -0.51300
O135        O  0.70570238  0.79744405  0.87282533    -0.74600
O136        O  0.72119984  0.83838660  0.94668187    -0.81300
O137        O  0.63198122  0.84348203  0.85355127    -0.83100
O138        O  0.72015464  0.82080402  0.00169758    -0.78700
O139        O  0.66955574  0.85417129  0.86698006    -0.90300
O140        O  0.69472312  0.76010323  0.88773234    -0.76300
O141        O  0.69010500  0.79170305  0.94797587    -0.85800
O142        O  0.65739107  0.79832754  0.89013589    -0.85500
O143        O  0.67712958  0.83856769  0.97308361    -0.72200
O144        O  0.64719413  0.84373272  0.92020637    -0.84400
Zr145      Zr  0.61615752  0.79255018  0.99473184     2.26400
Zr146      Zr  0.68157518  0.80319497  0.00847048     2.06300
Zr147      Zr  0.61917878  0.81539260  0.89853056     2.10000
Zr148      Zr  0.66169293  0.76395445  0.92681602     1.78800
O149        O  0.58501982  0.84048099  0.88761550    -0.93200
O150        O  0.68705280  0.73438585  0.95444967    -0.41000
O151        O  0.62383262  0.78078438  0.93427468    -0.77600
O152        O  0.65394259  0.77417722  0.98770658    -0.96300
O153        O  0.64361656  0.82065482  0.01713178    -0.89600
O154        O  0.61049784  0.82711883  0.95889868    -0.92500
C155        C  0.70716465  0.77474717  0.86985296     1.01300
C156        C  0.65023770  0.85647356  0.84894689     1.14200
C157        C  0.73026072  0.83368853  0.97783115     1.05000
O158        O  0.71153890  0.77334686  0.01960726    -0.94600
O159        O  0.66843401  0.77927497  0.05920275    -0.90400
O160        O  0.62926168  0.77362532  0.05022999    -0.83500
C161        C  0.64835081  0.77074270  0.06824734     1.11600
O162        O  0.65764750  0.89292821  0.96943115    -0.96600
Zr163      Zr  0.63855349  0.85497041  0.98079334     1.88900
O164        O  0.59181544  0.81970652  0.02845328    -0.73200
O165        O  0.69030805  0.82638228  0.06194900    -0.52500
O166        O  0.65439092  0.87234021  0.03571947    -0.97200
O167        O  0.61296904  0.88403982  0.95203887    -0.54400
O168        O  0.60561416  0.85711944  0.02217865    -0.73700
C169        C  0.59119209  0.84189569  0.03516798     0.98600
O170        O  0.58684973  0.76565735  0.01995254    -0.62600
O171        O  0.61444896  0.79640839  0.84026868    -0.57400
O172        O  0.58493225  0.77502864  0.95895720    -0.94100
O173        O  0.58338276  0.79155467  0.90322497    -0.92500
O174        O  0.64548216  0.74606264  0.87261628    -0.92800
O175        O  0.64051506  0.72743972  0.93971164    -0.91600
C176        C  0.57564599  0.77744352  0.92765258     1.17400
H177        H  0.65990954  0.79483305  0.86503709     0.33400
H178        H  0.65511334  0.75957697  0.00107726     0.44200
H179        H  0.59457128  0.83295822  0.96038818     0.37800
H180        H  0.68767888  0.85080624  0.98130256     0.34200
H181        H  0.68941465  0.72235190  0.93553956     0.26000
H182        H  0.67489053  0.82881843  0.07364469     0.32000
H183        H  0.64149577  0.88207963  0.04557197     0.37900
H184        H  0.65680077  0.73351624  0.86612740     0.32300
H185        H  0.61080260  0.77968880  0.84593662     0.31200
H186        H  0.59115377  0.85510053  0.87632611     0.32900
H187        H  0.59676212  0.87892540  0.95788289     0.31900
H188        H  0.62577856  0.73260764  0.95139460     0.35900
H189        H  0.59483084  0.75019969  0.02263819     0.28600
H190        H  0.72848542  0.84086541  0.87784027     0.32800
H191        H  0.64907194  0.90460405  0.98418950     0.35700
H192        H  0.59955008  0.80289151  0.83056626     0.28300
H193        H  0.58400976  0.77114509  0.04481424     0.41200
H194        H  0.70286597  0.75815707  0.02011806     0.31200
H195        H  0.70250357  0.74233459  0.95678772     0.38800
H196        H  0.61453165  0.88100991  0.92595033     0.30700
H197        H  0.69879486  0.81537626  0.07815309     0.30700
H198        H  0.71620835  0.86428385  0.89033500     0.31000
Zr199      Zr  0.81875575  0.64519695  0.62348364     2.17500
O200        O  0.78893609  0.61699537  0.64335352    -0.51300
O201        O  0.79854640  0.67184512  0.66589142    -0.74600
O202        O  0.83192487  0.62032856  0.67410672    -0.81300
O203        O  0.78723255  0.65153148  0.53218710    -0.83100
O204        O  0.86941910  0.63052944  0.68914682    -0.78700
O205        O  0.78356933  0.63484833  0.58749698    -0.90300
O206        O  0.81713511  0.70737927  0.66442477    -0.76300
O207        O  0.84632599  0.67272622  0.64817148    -0.85800
O208        O  0.81472697  0.68053757  0.58868843    -0.85500
O209        O  0.85705053  0.62722830  0.61580106    -0.72200
O210        O  0.82835873  0.63489917  0.56234653    -0.84400
Zr211      Zr  0.89030759  0.68000299  0.54699903     2.26400
Zr212      Zr  0.88444949  0.65521693  0.64092615     2.06300
Zr213      Zr  0.82515150  0.67073441  0.52810767     2.10000
Zr214      Zr  0.84244197  0.70777572  0.61283871     1.78800
O215        O  0.81567683  0.65052497  0.47220849    -0.93200
O216        O  0.86227902  0.73283111  0.65673580    -0.41000
O217        O  0.85252949  0.69841090  0.55231846    -0.77600
O218        O  0.88092608  0.69140262  0.60748112    -0.96300
O219        O  0.89452895  0.64460616  0.58061393    -0.89600
O220        O  0.86307180  0.65309681  0.52079517    -0.92500
C221        C  0.80204832  0.69301031  0.67757141     1.01300
C222        C  0.77592026  0.63917013  0.55540951     1.14200
C223        C  0.85066763  0.61817566  0.69345179     1.05000
O224        O  0.89376830  0.67333161  0.69854864    -0.94600
O225        O  0.92244775  0.67550429  0.63831264    -0.90400
O226        O  0.92635724  0.68724327  0.58018844    -0.83500
C227        C  0.93381175  0.68556832  0.61261151     1.11600
O228        O  0.84984870  0.57937148  0.56984393    -0.96600
Zr229      Zr  0.86673802  0.61785502  0.55515728     1.88900
O230        O  0.91304936  0.65378707  0.50908516    -0.73200
O231        O  0.91268066  0.62333674  0.64950302    -0.52500
O232        O  0.89577120  0.59014474  0.57872848    -0.97200
O233        O  0.84895587  0.60034404  0.50176444    -0.54400
O234        O  0.89963555  0.61616881  0.51388325    -0.73700
C235        C  0.91370089  0.63177699  0.50107034     0.98600
O236        O  0.91524774  0.71121817  0.52210951    -0.62600
O237        O  0.79658284  0.70197117  0.51700528    -0.57400
O238        O  0.87956428  0.70253121  0.49441336    -0.94100
O239        O  0.84155574  0.69496805  0.47963277    -0.92500
O240        O  0.80876472  0.73137390  0.59402886    -0.92800
O241        O  0.85533599  0.74632235  0.59099600    -0.91600
C242        C  0.86154231  0.70500975  0.47398337     1.17400
H243        H  0.79882002  0.68644067  0.59001766     0.33400
H244        H  0.89157752  0.70342561  0.61612870     0.44200
H245        H  0.86633220  0.65051696  0.49564576     0.37800
H246        H  0.85838737  0.61205322  0.62746080     0.34200
H247        H  0.84951711  0.74124026  0.66941610     0.26000
H248        H  0.92504247  0.62619475  0.63130611     0.32000
H249        H  0.89307614  0.58970638  0.60499880     0.37900
H250        H  0.80656459  0.74294302  0.61364619     0.32300
H251        H  0.80602675  0.71665879  0.51537767     0.31200
H252        H  0.80240254  0.65960294  0.46184378     0.32900
H253        H  0.85708444  0.60787719  0.48119464     0.31900
H254        H  0.85812594  0.74415569  0.56495394     0.35900
H255        H  0.93051501  0.70368514  0.51654518     0.28600
H256        H  0.78629502  0.62039038  0.66912496     0.32800
H257        H  0.85736223  0.56808187  0.55316629     0.35700
H258        H  0.79094440  0.69918305  0.49215586     0.28300
H259        H  0.91858069  0.72241241  0.54191269     0.41200
H260        H  0.87917555  0.68159804  0.70559535     0.31200
H261        H  0.86871634  0.72169599  0.67481634     0.38800
H262        H  0.83282315  0.60687487  0.50092955     0.30700
H263        H  0.92039692  0.62686992  0.67278515     0.30700
H264        H  0.79655543  0.60127056  0.64287163     0.31000
Zr265      Zr  0.09275453  0.05364328  0.87321698     2.17500
O266        O  0.11710727  0.02132601  0.89575363    -0.51300
O267        O  0.06505185  0.03400944  0.91472192    -0.74600
O268        O  0.11793286  0.06542605  0.92434413    -0.81300
O269        O  0.08574929  0.02187491  0.78181605    -0.83100
O270        O  0.11080499  0.10399627  0.93694529    -0.78700
O271        O  0.10353287  0.01921683  0.83654797    -0.90300
O272        O  0.02980021  0.05245338  0.90984620    -0.76300
O273        O  0.06623766  0.08218824  0.89694179    -0.85800
O274        O  0.05737566  0.05091695  0.83843065    -0.85500
O275        O  0.11253002  0.09123389  0.86553042    -0.72200
O276        O  0.10335775  0.06252581  0.81187798    -0.84400
Zr277      Zr  0.06175447  0.12708410  0.79498115     2.26400
Zr278      Zr  0.08547600  0.11961527  0.88982172     2.06300
Zr279      Zr  0.06759831  0.06071732  0.77762004     2.10000
Zr280      Zr  0.03143899  0.08014973  0.86109987     1.78800
O281        O  0.08530700  0.05038227  0.72030178    -0.93200
O282        O  0.01065782  0.10053463  0.90907759    -0.41000
O283        O  0.04157373  0.08991038  0.80063213    -0.77600
O284        O  0.04972061  0.11776531  0.85531965    -0.96300
O285        O  0.09686527  0.12944101  0.82953116    -0.89600
O286        O  0.08708439  0.09799710  0.77011599    -0.92500
C287        C  0.04357364  0.03736195  0.92438181     1.01300
C288        C  0.09841519  0.01093147  0.80522160     1.14200
C289        C  0.12136293  0.08432237  0.94299270     1.05000
O290        O  0.06642600  0.12538172  0.94763971    -0.94600
O291        O  0.06598410  0.15788583  0.88768927    -0.90400
O292        O  0.05491012  0.16304078  0.82937100    -0.83500
C293        C  0.05618323  0.16980895  0.86229394     1.11600
O294        O  0.15922774  0.08080875  0.81856430    -0.96600
Zr295      Zr  0.12212335  0.10026883  0.80473449     1.88900
O296        O  0.08979912  0.15072289  0.76076732    -0.73200
O297        O  0.11472032  0.15024974  0.90107389    -0.52500
O298        O  0.15096195  0.12737821  0.83039419    -0.97200
O299        O  0.14049537  0.08291020  0.75201600    -0.54400
O300        O  0.12544724  0.13291363  0.76291342    -0.73700
C301        C  0.11158317  0.14923024  0.75194103     0.98600
O302        O  0.02831550  0.15019254  0.77332513    -0.62600
O303        O  0.03365420  0.03494165  0.76880201    -0.57400
O304        O  0.04392721  0.11849855  0.73706426    -0.94100
O305        O  0.04434651  0.07858273  0.72930422    -0.92500
O306        O  0.00390471  0.05082164  0.83791033    -0.92800
O307        O  0.99384912  0.09742181  0.84376000    -0.91600
C308        C  0.03857871  0.09966885  0.71965586     1.17400
H309        H  0.05066565  0.03528973  0.84040258     0.33400
H310        H  0.03828493  0.12835342  0.86352066     0.44200
H311        H  0.09008854  0.10111793  0.74493811     0.37800
H312        H  0.12767568  0.09199652  0.87715484     0.34200
H313        H  0.99827753  0.08933108  0.91694046     0.26000
H314        H  0.11243609  0.15459112  0.92659767     0.32000
H315        H  0.14333830  0.14309545  0.82970826     0.37900
H316        H  0.99743032  0.04287688  0.85948163     0.32300
H317        H  0.03564180  0.02843617  0.74432865     0.31200
H318        H  0.07458393  0.03838245  0.70989624     0.32900
H319        H  0.13088662  0.08844275  0.73141467     0.31900
H320        H  0.99800313  0.11024240  0.82672256     0.35900
H321        H  0.03460181  0.16612478  0.76773817     0.28600
H322        H  0.11381514  0.02017741  0.92183006     0.32800
H323        H  0.15476100  0.06702295  0.83355282     0.35700
H324        H  0.03621853  0.02127836  0.78500335     0.28300
H325        H  0.01792405  0.15241453  0.79435500     0.41200
H326        H  0.06324665  0.10925720  0.95686951     0.31200
H327        H  0.02194978  0.10094561  0.92938315     0.38800
H328        H  0.13691190  0.06581322  0.75383632     0.30700
H329        H  0.13000808  0.14191289  0.90069825     0.30700
H330        H  0.13354621  0.02706286  0.89415771     0.31000
Zr331      Zr  0.90894962  0.92391994  0.16449157     2.17500
O332        O  0.88224420  0.95136522  0.13432212    -0.51300
O333        O  0.93531562  0.94411224  0.12143097    -0.74600
O334        O  0.90037576  0.95979604  0.19961696    -0.81300
O335        O  0.89036467  0.87101747  0.10549130    -0.83100
O336        O  0.91832807  0.95757230  0.25425555    -0.78700
O337        O  0.87980840  0.90838116  0.12096562    -0.90300
O338        O  0.97311163  0.93569549  0.13653774    -0.76300
O339        O  0.94446097  0.92864245  0.19831898    -0.85800
O340        O  0.93650242  0.89669585  0.13967876    -0.85500
O341        O  0.89907046  0.91449484  0.22619885    -0.72200
O342        O  0.89219441  0.88532940  0.17310052    -0.84400
Zr343      Zr  0.94639570  0.85347495  0.24236559     2.26400
Zr344      Zr  0.93524332  0.91865100  0.25938179     2.06300
Zr345      Zr  0.91989927  0.85816606  0.14840020     2.10000
Zr346      Zr  0.97176984  0.90119234  0.17395415     1.78800
O347        O  0.89258612  0.82525342  0.14150186    -0.93200
O348        O  0.00344100  0.92600351  0.19737044    -0.41000
O349        O  0.95589468  0.86252031  0.18120251    -0.77600
O350        O  0.96361268  0.89198690  0.23533309    -0.96300
O351        O  0.91886814  0.88006189  0.26797988    -0.89600
O352        O  0.91089272  0.84804176  0.20930251    -0.92500
C353        C  0.95772824  0.94674716  0.11795891     1.01300
C354        C  0.87726752  0.88935479  0.10219897     1.14200
C355        C  0.90602121  0.96842072  0.23049592     1.05000
O356        O  0.96599393  0.94771307  0.27063921    -0.94600
O357        O  0.95961572  0.90388131  0.30863321    -0.90400
O358        O  0.96405433  0.86435765  0.29960143    -0.83500
C359        C  0.96740639  0.88338213  0.31763792     1.11600
O360        O  0.84429079  0.89200919  0.23010480    -0.96600
Zr361      Zr  0.88364397  0.87526090  0.23422939     1.88900
O362        O  0.92059973  0.82683898  0.27519075    -0.73200
O363        O  0.91354531  0.92733047  0.31415369    -0.52500
O364        O  0.86874437  0.88984797  0.29132726    -0.97200
O365        O  0.85422253  0.85039748  0.20505218    -0.54400
O366        O  0.88315092  0.84017768  0.27200033    -0.73700
C367        C  0.89865119  0.82526385  0.28274006     0.98600
O368        O  0.97937470  0.83168874  0.26843044    -0.62600
O369        O  0.93668831  0.85328159  0.08872810    -0.57400
O370        O  0.96032495  0.82123060  0.20481461    -0.94100
O371        O  0.94254975  0.82184243  0.14992047    -0.92500
O372        O  0.98624373  0.88717654  0.11632663    -0.92800
O373        O  0.00864104  0.87998000  0.18233455    -0.91600
C374        C  0.95658120  0.81284603  0.17327356     1.17400
H375        H  0.93907721  0.89951080  0.11436506     0.33400
H376        H  0.97826694  0.89295369  0.24843636     0.44200
H377        H  0.90534792  0.83191196  0.21038047     0.37800
H378        H  0.88729538  0.92511439  0.23539380     0.34200
H379        H  0.99655611  0.94201605  0.19914238     0.26000
H380        H  0.91429954  0.91261230  0.32858295     0.32000
H381        H  0.88011100  0.88416892  0.30962194     0.37900
H382        H  0.00070935  0.89650298  0.11189811     0.32300
H383        H  0.95387605  0.85243865  0.09285979     0.31200
H384        H  0.89484609  0.81980351  0.11648604     0.32900
H385        H  0.86039287  0.83409909  0.20716073     0.31900
H386        H  0.00679393  0.87152491  0.20551209     0.35900
H387        H  0.97442695  0.81491813  0.26934499     0.28600
H388        H  0.89055254  0.96676322  0.13351032     0.32800
H389        H  0.84679475  0.90911536  0.22587458     0.35700
H390        H  0.93216401  0.83708014  0.08140849     0.28300
H391        H  0.99209034  0.83232803  0.25031572     0.41200
H392        H  0.96226729  0.95421985  0.29463016     0.31200
H393        H  0.00567225  0.92096196  0.22266405     0.38800
H394        H  0.85550424  0.85420389  0.17912482     0.30700
H395        H  0.92363160  0.93866891  0.32737673     0.30700
H396        H  0.86895002  0.95373146  0.15106000     0.31000
Zr397      Zr  0.18724833  0.83155945  0.62356815     2.17500
O398        O  0.21769192  0.85862273  0.64487644    -0.51300
O399        O  0.20603362  0.80517894  0.66825300    -0.74600
O400        O  0.17319958  0.85788633  0.67266442    -0.81300
O401        O  0.22177198  0.81982751  0.53574295    -0.83100
O402        O  0.13471951  0.84960263  0.68374366    -0.78700
O403        O  0.22283957  0.84046092  0.58814384    -0.90300
O404        O  0.18694347  0.76990296  0.66704380    -0.76300
O405        O  0.15858612  0.80507585  0.64760461    -0.85800
O406        O  0.19132281  0.79506746  0.59148514    -0.85500
O407        O  0.14984177  0.85032439  0.61175263    -0.72200
O408        O  0.18010914  0.83979576  0.56058538    -0.84400
Zr409      Zr  0.11749881  0.79618657  0.54335483     2.26400
Zr410      Zr  0.12130881  0.82337708  0.63631144     2.06300
Zr411      Zr  0.18301162  0.80291272  0.52915858     2.10000
Zr412      Zr  0.16223305  0.76906430  0.61492845     1.78800
O413        O  0.19240297  0.82216674  0.47230694    -0.93200
O414        O  0.13969231  0.74767202  0.66013977    -0.41000
O415        O  0.15427715  0.77678641  0.55311294    -0.77600
O416        O  0.12470435  0.78645654  0.60522778    -0.96300
O417        O  0.11369569  0.83252639  0.57449808    -0.89600
O418        O  0.14614950  0.82177770  0.51764477    -0.92500
C419        C  0.20195255  0.78420960  0.68044257     1.01300
C420        C  0.23199690  0.83361429  0.55821024     1.14200
C421        C  0.15383093  0.86097368  0.69026885     1.05000
O422        O  0.11362989  0.80544920  0.69477860    -0.94600
O423        O  0.08292922  0.80431119  0.63148198    -0.90400
O424        O  0.08037251  0.79071185  0.57415476    -0.83500
C425        C  0.07202111  0.79378815  0.60577002     1.11600
O426        O  0.16497261  0.89376540  0.56343222    -0.96600
Zr427      Zr  0.14270874  0.85800831  0.54949901     1.88900
O428        O  0.09436188  0.82230560  0.50576760    -0.73200
O429        O  0.09168722  0.85422020  0.64136062    -0.52500
O430        O  0.11709313  0.88948621  0.57055487    -0.97200
O431        O  0.15853743  0.87492954  0.49416723    -0.54400
O432        O  0.10846603  0.85958860  0.51026011    -0.73700
C433        C  0.09365687  0.84441763  0.49815726     0.98600
O434        O  0.09568854  0.76156960  0.52268048    -0.62600
O435        O  0.20909651  0.76962881  0.51832579    -0.57400
O436        O  0.12803426  0.77524313  0.48902175    -0.94100
O437        O  0.16782736  0.77613807  0.48300264    -0.92500
O438        O  0.19395974  0.74251097  0.59766958    -0.92800
O439        O  0.14709799  0.73015284  0.59902698    -0.91600
C440        C  0.14716631  0.76935782  0.47325619     1.17400
H441        H  0.20695386  0.78872990  0.59464945     0.33400
H442        H  0.11348526  0.77495057  0.61378274     0.44200
H443        H  0.14348414  0.82390757  0.49216386     0.37800
H444        H  0.14861082  0.86575213  0.62249080     0.34200
H445        H  0.15136652  0.73787789  0.67318619     0.26000
H446        H  0.08078706  0.85155478  0.62093359     0.32000
H447        H  0.11234625  0.88458678  0.59503910     0.37900
H448        H  0.20606282  0.74409266  0.61671464     0.32300
H449        H  0.21759053  0.77383005  0.49600239     0.31200
H450        H  0.20642836  0.81370844  0.46335821     0.32900
H451        H  0.14466004  0.87915965  0.47935784     0.31900
H452        H  0.13993405  0.73228598  0.57493121     0.35900
H453        H  0.08001947  0.76743355  0.51515142     0.28600
H454        H  0.21891487  0.85586562  0.67112234     0.32800
H455        H  0.15992022  0.90574651  0.54555892     0.35700
H456        H  0.22111423  0.77042330  0.53758816     0.28300
H457        H  0.09278004  0.75184234  0.54441272     0.41200
H458        H  0.10492364  0.79066959  0.68960264     0.31200
H459        H  0.13500030  0.75991136  0.67762340     0.38800
H460        H  0.16584384  0.86154281  0.48136283     0.30700
H461        H  0.08247338  0.84987276  0.66293632     0.30700
H462        H  0.21093330  0.87466829  0.64235538     0.31000
Zr463      Zr  0.31329932  0.64168848  0.91236797     2.17500
O464        O  0.28699754  0.61661451  0.87710429    -0.51300
O465        O  0.29341992  0.66891081  0.86977226    -0.74600
O466        O  0.27696228  0.63177176  0.94517004    -0.81300
O467        O  0.36712492  0.62363931  0.85588669    -0.83100
O468        O  0.27719684  0.65120662  0.99851866    -0.78700
O469        O  0.32994570  0.61244357  0.87061217    -0.90300
O470        O  0.30313004  0.70640153  0.88552019    -0.76300
O471        O  0.30814947  0.67711235  0.94609454    -0.85800
O472        O  0.34131982  0.66935312  0.88946760    -0.85500
O473        O  0.32083519  0.63082755  0.97452796    -0.72200
O474        O  0.35142451  0.62466534  0.92322016    -0.84400
Zr475      Zr  0.38163857  0.67776850  0.99514273     2.26400
Zr476      Zr  0.31622763  0.66694833  0.00756095     2.06300
Zr477      Zr  0.37933153  0.65244985  0.90025686     2.10000
Zr478      Zr  0.33669364  0.70438632  0.92405481     1.78800
O479        O  0.41034173  0.62363449  0.89008257    -0.93200
O480        O  0.31264551  0.73527689  0.95076006    -0.41000
O481        O  0.37486272  0.68817220  0.93355226    -0.77600
O482        O  0.34389760  0.69550189  0.98574639    -0.96300
O483        O  0.35408431  0.65009514  0.01857920    -0.89600
O484        O  0.38728626  0.64250319  0.96154033    -0.92500
C485        C  0.29135978  0.69154571  0.86704646     1.01300
C486        C  0.34909834  0.61016407  0.85244901     1.14200
C487        C  0.26734308  0.63791930  0.97502771     1.05000
O488        O  0.28828981  0.69818137  0.02131961    -0.94600
O489        O  0.32993228  0.69002645  0.05862519    -0.90400
O490        O  0.36957158  0.69436454  0.05264545    -0.83500
C491        C  0.35005443  0.69776290  0.06914949     1.11600
O492        O  0.33948032  0.57718636  0.97753474    -0.96600
Zr493      Zr  0.35954419  0.61502363  0.98478363     1.88900
O494        O  0.40533801  0.65221260  0.03286762    -0.73200
O495        O  0.30541107  0.64336332  0.05992486    -0.52500
O496        O  0.34693963  0.60076457  0.04350630    -0.97200
O497        O  0.38342539  0.58402340  0.95797036    -0.54400
O498        O  0.39392218  0.61423249  0.02407707    -0.73700
C499        C  0.40716308  0.62993968  0.03873309     0.98600
O500        O  0.40241723  0.71445602  0.00885177    -0.62600
O501        O  0.38645296  0.67245426  0.84315813    -0.57400
O502        O  0.41911824  0.68490255  0.96611836    -0.94100
O503        O  0.41750582  0.67133523  0.90866287    -0.92500
O504        O  0.35219110  0.71954598  0.86756043    -0.92800
O505        O  0.35589736  0.74266576  0.93025999    -0.91600
C506        C  0.42817562  0.68150558  0.93496757     1.17400
H507        H  0.33887809  0.67227356  0.86414239     0.33400
H508        H  0.34271842  0.71010022  0.99898478     0.44200
H509        H  0.40319846  0.63670540  0.96379472     0.37800
H510        H  0.30996142  0.61892450  0.98294583     0.34200
H511        H  0.30490342  0.74329294  0.93020073     0.26000
H512        H  0.31907909  0.64447475  0.07640693     0.32000
H513        H  0.32986702  0.60406503  0.04426128     0.37900
H514        H  0.36930037  0.71641535  0.86887873     0.32300
H515        H  0.40010705  0.66410536  0.83276909     0.31200
H516        H  0.41662693  0.62753861  0.86598761     0.32900
H517        H  0.39395313  0.57849716  0.97750698     0.31900
H518        H  0.37211609  0.73888604  0.93813567     0.35900
H519        H  0.39000892  0.72666867  0.01041601     0.28600
H520        H  0.27139051  0.62433411  0.87775476     0.32800
H521        H  0.34662808  0.56649365  0.99563811     0.35700
H522        H  0.37309735  0.66793700  0.82745981     0.28300
H523        H  0.40852498  0.71268687  0.03367747     0.41200
H524        H  0.27692019  0.69812895  0.00109378     0.31200
H525        H  0.29976392  0.72670687  0.96301463     0.38800
H526        H  0.39393980  0.59238711  0.94100172     0.30700
H527        H  0.29290677  0.65258860  0.07186817     0.30700
H528        H  0.28510688  0.60191617  0.89131430     0.31000
Zr529      Zr  0.18955002  0.32924326  0.41015539     2.17500
O530        O  0.21602476  0.35696622  0.38016827    -0.51300
O531        O  0.20836283  0.30182502  0.36650862    -0.74600
O532        O  0.22560792  0.33814222  0.44499404    -0.81300
O533        O  0.13615360  0.34682305  0.35104305    -0.83100
O534        O  0.22405445  0.32086532  0.50027209    -0.78700
O535        O  0.17369236  0.35734643  0.36492044    -0.90300
O536        O  0.19437262  0.26510753  0.37801676    -0.76300
O537        O  0.19390289  0.29421095  0.44578006    -0.85800
O538        O  0.16109579  0.30179768  0.38783924    -0.85500
O539        O  0.18122514  0.34036729  0.47178253    -0.72200
O540        O  0.15171149  0.34713920  0.41932202    -0.84400
Zr541      Zr  0.11959729  0.29562019  0.49209407     2.26400
Zr542      Zr  0.18494251  0.30464607  0.50689376     2.06300
Zr543      Zr  0.12349218  0.31948258  0.39678259     2.10000
Zr544      Zr  0.16521322  0.26709497  0.42377774     1.78800
O545        O  0.09153788  0.34730898  0.38640885    -0.93200
O546        O  0.19414587  0.24011666  0.44954077    -0.41000
O547        O  0.12727498  0.28408248  0.43138080    -0.77600
O548        O  0.15701553  0.27668818  0.48466074    -0.96300
O549        O  0.14735655  0.32279242  0.51587767    -0.89600
O550        O  0.11470319  0.33056677  0.45725737    -0.92500
C551        C  0.20716471  0.27939262  0.36001566     1.01300
C552        C  0.15451461  0.35958452  0.34642783     1.14200
C553        C  0.23449976  0.33318026  0.47608848     1.05000
O554        O  0.21170292  0.27199308  0.51896592    -0.94600
O555        O  0.17058123  0.28076336  0.55742814    -0.90400
O556        O  0.13181298  0.27512188  0.54618553    -0.83500
C557        C  0.15046260  0.27157435  0.56493810     1.11600
O558        O  0.16155105  0.39592872  0.47041620    -0.96600
Zr559      Zr  0.14306216  0.35754168  0.48027788     1.88900
O560        O  0.09425471  0.32305827  0.52394938    -0.73200
O561        O  0.19501099  0.32714036  0.56054861    -0.52500
O562        O  0.15988432  0.37265915  0.53604105    -0.97200
O563        O  0.11843901  0.38727592  0.45115844    -0.54400
O564        O  0.10906647  0.36013864  0.51976164    -0.73700
C565        C  0.09369568  0.34522750  0.53103189     0.98600
O566        O  0.09389228  0.26819691  0.52423167    -0.62600
O567        O  0.11790747  0.30022051  0.33882313    -0.57400
O568        O  0.08833074  0.27980441  0.45504878    -0.94100
O569        O  0.08669042  0.29822978  0.40077740    -0.92500
O570        O  0.14905450  0.24635936  0.37202035    -0.92800
O571        O  0.14552631  0.22961729  0.43611454    -0.91600
C572        C  0.07889355  0.28364384  0.42427029     1.17400
H573        H  0.16315043  0.29862365  0.36254870     0.33400
H574        H  0.15797938  0.26194399  0.49766504     0.44200
H575        H  0.09888793  0.33668855  0.45841644     0.37800
H576        H  0.19216936  0.35219541  0.48022407     0.34200
H577        H  0.19317705  0.22576212  0.43444058     0.26000
H578        H  0.17992182  0.32924369  0.57333625     0.32000
H579        H  0.15076090  0.36492885  0.55543837     0.37900
H580        H  0.13269117  0.25213849  0.36994419     0.32300
H581        H  0.11067308  0.28471777  0.34439698     0.31200
H582        H  0.08834340  0.34650762  0.36025438     0.32900
H583        H  0.10575189  0.39080204  0.46846706     0.31900
H584        H  0.14550041  0.22804099  0.46262566     0.35900
H585        H  0.07781527  0.27474540  0.52214550     0.28600
H586        H  0.23155612  0.34911821  0.37936072     0.32800
H587        H  0.15401340  0.40676153  0.48776129     0.35700
H588        H  0.10517609  0.30930471  0.32697664     0.28300
H589        H  0.09362672  0.25346448  0.50990494     0.41200
H590        H  0.21702040  0.27438127  0.54407549     0.31200
H591        H  0.20959184  0.24717207  0.44349234     0.38800
H592        H  0.11046351  0.37879175  0.43133486     0.30700
H593        H  0.20402315  0.31597648  0.57579570     0.30700
H594        H  0.21806495  0.37032512  0.39705944     0.31000
Zr595      Zr  0.31668875  0.14329890  0.11786025     2.17500
O596        O  0.28401196  0.12153642  0.14456285    -0.51300
O597        O  0.29712195  0.17085831  0.15977968    -0.74600
O598        O  0.33074669  0.11641744  0.16625048    -0.81300
O599        O  0.28269267  0.15106043  0.02855246    -0.83100
O600        O  0.36917457  0.12484219  0.17787453    -0.78700
O601        O  0.28261387  0.13073432  0.08134245    -0.90300
O602        O  0.30727430  0.20859096  0.14592425    -0.76300
O603        O  0.34463346  0.17059247  0.14159002    -0.85800
O604        O  0.31219127  0.17895160  0.08380288    -0.85500
O605        O  0.35462088  0.12523740  0.10751032    -0.72200
O606        O  0.32472501  0.13341329  0.05586132    -0.84400
Zr607      Zr  0.38689091  0.17838740  0.03821276     2.26400
Zr608      Zr  0.38249250  0.15290961  0.13230817     2.06300
Zr609      Zr  0.32116981  0.16953544  0.02244471     2.10000
Zr610      Zr  0.34058665  0.20591459  0.10689122     1.78800
O611        O  0.31310354  0.14830749  0.96690261    -0.93200
O612        O  0.35540827  0.22169671  0.16358039    -0.41000
O613        O  0.34943793  0.19708740  0.04564324    -0.77600
O614        O  0.37869715  0.18919135  0.09920367    -0.96300
O615        O  0.39125385  0.14277360  0.07126950    -0.89600
O616        O  0.35893460  0.15189390  0.01269854    -0.92500
C617        C  0.29538935  0.19342229  0.16373947     1.01300
C618        C  0.27309502  0.13679855  0.05115865     1.14200
C619        C  0.35020715  0.11296403  0.18361788     1.05000
O620        O  0.38696026  0.17285722  0.18981539    -0.94600
O621        O  0.42099026  0.17242889  0.12675351    -0.90400
O622        O  0.42371171  0.18554686  0.06903332    -0.83500
C623        C  0.43209600  0.18256189  0.10075636     1.11600
O624        O  0.34414819  0.07813926  0.05478310    -0.96600
Zr625      Zr  0.36301090  0.11644356  0.04631796     1.88900
O626        O  0.41086878  0.15240680  0.00177817    -0.73200
O627        O  0.41337660  0.12422453  0.14492656    -0.52500
O628        O  0.38770091  0.08696464  0.07561696    -0.97200
O629        O  0.34769136  0.09856466  0.99147221    -0.54400
O630        O  0.39799092  0.11478808  0.00858826    -0.73700
C631        C  0.41243159  0.13014340  0.99586412     0.98600
O632        O  0.41344776  0.21043078  0.02097352    -0.62600
O633        O  0.29395259  0.20145073  0.00804151    -0.57400
O634        O  0.37485142  0.19854874  0.98373879    -0.94100
O635        O  0.33567904  0.19429242  0.97371705    -0.92500
O636        O  0.31583195  0.23501141  0.07669049    -0.92800
O637        O  0.35945329  0.24448993  0.10196761    -0.91600
C638        C  0.35605531  0.20247889  0.96555835     1.17400
H639        H  0.29641507  0.18507648  0.08577050     0.33400
H640        H  0.38970057  0.20099342  0.10752295     0.44200
H641        H  0.36182160  0.14938197  0.98741331     0.37800
H642        H  0.35619704  0.10976475  0.11806140     0.34200
H643        H  0.35010293  0.21032387  0.18216796     0.26000
H644        H  0.42479642  0.12601975  0.12505803     0.32000
H645        H  0.40314793  0.09482887  0.07866146     0.37900
H646        H  0.32063631  0.23452497  0.05114256     0.32300
H647        H  0.28510679  0.19577397  0.98676781     0.31200
H648        H  0.29777141  0.15450384  0.95845314     0.32900
H649        H  0.35816513  0.10421612  0.97203889     0.31900
H650        H  0.36867930  0.24365359  0.07947966     0.35900
H651        H  0.41843508  0.20697846  0.99604614     0.28600
H652        H  0.28535712  0.12406609  0.17082287     0.32800
H653        H  0.33849728  0.07823118  0.07993550     0.35700
H654        H  0.28233416  0.20147530  0.02778536     0.28300
H655        H  0.40361362  0.22480980  0.01919586     0.41200
H656        H  0.39894977  0.16349509  0.20291946     0.31200
H657        H  0.37266629  0.21952045  0.16260847     0.38800
H658        H  0.33256561  0.10669715  0.98698126     0.30700
H659        H  0.42166525  0.13045556  0.16636178     0.30700
H660        H  0.28768977  0.10463098  0.14104752     0.31000
Zr661      Zr  0.59467336  0.55045985  0.36967063     2.17500
O662        O  0.61829492  0.51831222  0.39424078    -0.51300
O663        O  0.56816853  0.53339581  0.41591137    -0.74600
O664        O  0.62269522  0.56523528  0.41629231    -0.81300
O665        O  0.58523971  0.51541919  0.28106953    -0.83100
O666        O  0.61398909  0.60381101  0.42641744    -0.78700
O667        O  0.60446869  0.51440317  0.33475018    -0.90300
O668        O  0.53191670  0.54975406  0.41082809    -0.76300
O669        O  0.56860697  0.57985055  0.39246112    -0.85800
O670        O  0.55820134  0.54598446  0.33789245    -0.85500
O671        O  0.61341192  0.58793835  0.35608095    -0.72200
O672        O  0.60279139  0.55710673  0.30664493    -0.84400
Zr673      Zr  0.55886896  0.61997214  0.28772125     2.26400
Zr674      Zr  0.58702777  0.61720976  0.37981174     2.06300
Zr675      Zr  0.56598379  0.55347844  0.27542935     2.10000
Zr676      Zr  0.53245463  0.57557468  0.36011740     1.78800
O677        O  0.58342293  0.54325435  0.21785790    -0.93200
O678        O  0.51269356  0.59700509  0.40808705    -0.41000
O679        O  0.53986889  0.58273854  0.29809574    -0.77600
O680        O  0.54978092  0.61319637  0.34981299    -0.96300
O681        O  0.59543717  0.62453690  0.31782758    -0.89600
O682        O  0.58405692  0.59080154  0.26282944    -0.92500
C683        C  0.54668146  0.53611602  0.42625701     1.01300
C684        C  0.59862900  0.50518174  0.30419411     1.14200
C685        C  0.62604360  0.58506016  0.43290526     1.05000
O686        O  0.57190869  0.62863608  0.43837534    -0.94600
O687        O  0.56725862  0.65547711  0.37478422    -0.90400
O688        O  0.55206061  0.65709755  0.31822399    -0.83500
C689        C  0.55570255  0.66588877  0.34948639     1.11600
O690        O  0.65753740  0.57364020  0.29796602    -0.96600
Zr691      Zr  0.62035484  0.59483760  0.29376816     1.88900
O692        O  0.58448368  0.64363811  0.24995714    -0.73200
O693        O  0.61810266  0.64692180  0.38088977    -0.52500
O694        O  0.65173588  0.61928231  0.31869451    -0.97200
O695        O  0.63423049  0.58035909  0.23586206    -0.54400
O696        O  0.62178236  0.62989439  0.25654479    -0.73700
C697        C  0.60662300  0.64434376  0.24375768     0.98600
O698        O  0.52405165  0.64072515  0.26559097    -0.62600
O699        O  0.53445125  0.52453381  0.26952484    -0.57400
O700        O  0.53907439  0.60882824  0.23305465    -0.94100
O701        O  0.54016392  0.56879214  0.22794630    -0.92500
O702        O  0.50597801  0.54416152  0.34069670    -0.92800
O703        O  0.49398855  0.59143492  0.34399575    -0.91600
C704        C  0.53363073  0.58946344  0.21735332     1.17400
H705        H  0.55180528  0.53031329  0.34143478     0.33400
H706        H  0.53832497  0.62431118  0.35853414     0.44200
H707        H  0.58595275  0.59318759  0.23726821     0.37800
H708        H  0.62903408  0.58944729  0.36594644     0.34200
H709        H  0.49959564  0.58658297  0.41570281     0.26000
H710        H  0.61505693  0.65622571  0.40288062     0.32000
H711        H  0.64513502  0.63545075  0.31949683     0.37900
H712        H  0.50021910  0.54924209  0.31674877     0.32300
H713        H  0.52008183  0.53396548  0.26514632     0.31200
H714        H  0.57703740  0.52741601  0.21206441     0.32900
H715        H  0.62265865  0.56818856  0.22858703     0.31900
H716        H  0.49740735  0.60435668  0.32675501     0.35900
H717        H  0.51386768  0.64305109  0.28683018     0.28600
H718        H  0.61782809  0.52012712  0.42069506     0.32800
H719        H  0.66880902  0.58287417  0.28327642     0.35700
H720        H  0.53752206  0.51684695  0.24614997     0.28300
H721        H  0.52941867  0.65677178  0.25867963     0.41200
H722        H  0.56311656  0.61460917  0.44698121     0.31200
H723        H  0.52386845  0.59662639  0.42855147     0.38800
H724        H  0.63179644  0.59348825  0.21859519     0.30700
H725        H  0.63268367  0.63805502  0.38635815     0.30700
H726        H  0.63464763  0.52216287  0.38736640     0.31000
Zr727      Zr  0.41211255  0.42052643  0.66124195     2.17500
O728        O  0.39181243  0.45042910  0.62538809    -0.51300
O729        O  0.44136156  0.44268759  0.62514160    -0.74600
O730        O  0.39990897  0.45434173  0.69869141    -0.81300
O731        O  0.39341179  0.37078824  0.59677354    -0.83100
O732        O  0.41748433  0.45047217  0.75328536    -0.78700
O733        O  0.38360394  0.40774574  0.61495619    -0.90300
O734        O  0.47786191  0.42804838  0.63483563    -0.76300
O735        O  0.44610307  0.42285543  0.69892768    -0.85800
O736        O  0.44008419  0.39365697  0.63641591    -0.85500
O737        O  0.39902161  0.40861838  0.72068045    -0.72200
O738        O  0.39430179  0.38193338  0.66425556    -0.84400
Zr739      Zr  0.44436396  0.34600040  0.73512699     2.26400
Zr740      Zr  0.43363327  0.41072413  0.75780369     2.06300
Zr741      Zr  0.42231351  0.35533907  0.63906021     2.10000
Zr742      Zr  0.47376538  0.39551699  0.67491928     1.78800
O743        O  0.39586694  0.32316770  0.62261768    -0.93200
O744        O  0.50008299  0.42288901  0.70583332    -0.41000
O745        O  0.45681375  0.35699758  0.67596170    -0.77600
O746        O  0.46243983  0.38428034  0.73383634    -0.96300
O747        O  0.41635537  0.37209329  0.76095626    -0.89600
O748        O  0.41041861  0.34289544  0.69789411    -0.92500
C749        C  0.46377531  0.44256690  0.61984316     1.01300
C750        C  0.38077395  0.38953617  0.59457026     1.14200
C751        C  0.40477367  0.46195052  0.73053118     1.05000
O752        O  0.46318326  0.43824936  0.78025817    -0.94600
O753        O  0.45618963  0.39306253  0.80734750    -0.90400
O754        O  0.46165506  0.35446944  0.79346391    -0.83500
C755        C  0.46460195  0.37239304  0.81415982     1.11600
O756        O  0.34472813  0.38798600  0.71197649    -0.96600
Zr757      Zr  0.38268371  0.36935367  0.72322062     1.88900
O758        O  0.41770172  0.31957119  0.76589427    -0.73200
O759        O  0.40768722  0.41683403  0.80886350    -0.52500
O760        O  0.36373941  0.38089156  0.77915729    -0.97200
O761        O  0.35546914  0.34311886  0.69182432    -0.54400
O762        O  0.38080904  0.33414140  0.76078956    -0.73700
C763        C  0.39558699  0.31865241  0.77205311     0.98600
O764        O  0.47730415  0.32318933  0.75915076    -0.62600
O765        O  0.44277773  0.35361090  0.58154750    -0.57400
O766        O  0.45466156  0.31205729  0.69855468    -0.94100
O767        O  0.44433310  0.31858039  0.64022739    -0.92500
O768        O  0.49651836  0.38199589  0.62365019    -0.92800
O769        O  0.51017356  0.37509764  0.69001344    -0.91600
C770        C  0.45398793  0.30627560  0.66524765     1.17400
H771        H  0.44387426  0.39756517  0.61181044     0.33400
H772        H  0.47663578  0.38437160  0.74810781     0.44200
H773        H  0.40455400  0.32686094  0.69718385     0.37800
H774        H  0.38685920  0.41885970  0.72968442     0.34200
H775        H  0.49081241  0.43753879  0.70884387     0.26000
H776        H  0.40855223  0.40194946  0.82287210     0.32000
H777        H  0.36579960  0.39824321  0.78052697     0.37900
H778        H  0.48530044  0.37247963  0.60930058     0.32300
H779        H  0.44341641  0.33660881  0.57541376     0.31200
H780        H  0.39593341  0.32297134  0.59599745     0.32900
H781        H  0.36076980  0.32688185  0.69760015     0.31900
H782        H  0.50563291  0.35823673  0.69206473     0.35900
H783        H  0.47159149  0.30671357  0.76156948     0.28600
H784        H  0.39946777  0.46568492  0.63125530     0.32800
H785        H  0.33306152  0.37807079  0.72480171     0.35700
H786        H  0.43177877  0.36043953  0.56366035     0.28300
H787        H  0.48922412  0.32275737  0.73981525     0.41200
H788        H  0.45517335  0.44711927  0.79956002     0.31200
H789        H  0.50182238  0.41651956  0.73051550     0.38800
H790        H  0.35926143  0.34520776  0.66604997     0.30700
H791        H  0.41592994  0.42863699  0.82397278     0.30700
H792        H  0.37585251  0.45157186  0.63569405     0.31000
Zr793      Zr  0.81800604  0.14538737  0.41413010     2.17500
O794        O  0.79382587  0.11784623  0.37962378    -0.51300
O795        O  0.79594496  0.17135138  0.37255304    -0.74600
O796        O  0.78274126  0.13260941  0.44781423    -0.81300
O797        O  0.87203140  0.13043718  0.35539075    -0.83100
O798        O  0.78256278  0.15135029  0.50181099    -0.78700
O799        O  0.83537380  0.11801422  0.37066053    -0.90300
O800        O  0.80695718  0.20939626  0.38236711    -0.76300
O801        O  0.81137212  0.18070451  0.44734389    -0.85800
O802        O  0.84457446  0.17433214  0.39039550    -0.85500
O803        O  0.82667521  0.13516371  0.47607446    -0.72200
O804        O  0.85701334  0.13032130  0.42375154    -0.84400
Zr805      Zr  0.88506907  0.18491212  0.49425444     2.26400
Zr806      Zr  0.82023434  0.17117766  0.50867854     2.06300
Zr807      Zr  0.88344669  0.15932980  0.40007187     2.10000
Zr808      Zr  0.83839441  0.20932921  0.42471514     1.78800
O809        O  0.91551282  0.13163827  0.39000699    -0.93200
O810        O  0.80889352  0.23655097  0.44770531    -0.41000
O811        O  0.87742808  0.19498692  0.43280014    -0.77600
O812        O  0.84645264  0.20093131  0.48620259    -0.96300
O813        O  0.85906308  0.15611257  0.51851273    -0.89600
O814        O  0.89237769  0.14987405  0.46119290    -0.92500
C815        C  0.79452579  0.19376554  0.36660640     1.01300
C816        C  0.85443536  0.11634514  0.35222067     1.14200
C817        C  0.77328377  0.13754832  0.47835983     1.05000
O818        O  0.78951231  0.20058484  0.51661330    -0.94600
O819        O  0.83334158  0.19593858  0.55840755    -0.90400
O820        O  0.87284038  0.20089859  0.55152420    -0.83500
C821        C  0.85347265  0.20400489  0.56839635     1.11600
O822        O  0.84785799  0.08257259  0.47643800    -0.96600
Zr823      Zr  0.86611048  0.12118153  0.48508899     1.88900
O824        O  0.91048249  0.16056658  0.53107805    -0.73200
O825        O  0.81223224  0.15042407  0.56483817    -0.52500
O826        O  0.85348288  0.10430155  0.54226202    -0.97200
O827        O  0.89278566  0.09315399  0.45694008    -0.54400
O828        O  0.90011538  0.12209814  0.52502057    -0.73700
C829        C  0.91311599  0.13856094  0.53817016     0.98600
O830        O  0.90617245  0.22107923  0.50997600    -0.62600
O831        O  0.88965267  0.17981185  0.34318167    -0.57400
O832        O  0.92117916  0.19533042  0.46413565    -0.94100
O833        O  0.92048708  0.18046706  0.40751548    -0.92500
O834        O  0.85260824  0.22900100  0.37062752    -0.92800
O835        O  0.85590898  0.24749231  0.43908525    -0.91600
C836        C  0.93041443  0.19192540  0.43320546     1.17400
H837        H  0.84193779  0.17702036  0.36502727     0.33400
H838        H  0.84488355  0.21554616  0.49931671     0.44200
H839        H  0.90859050  0.14495776  0.46326236     0.37800
H840        H  0.81668982  0.12262599  0.48489851     0.34200
H841        H  0.79373411  0.22804742  0.44526112     0.26000
H842        H  0.79559116  0.15396708  0.57038461     0.32000
H843        H  0.85897231  0.11560339  0.56077004     0.37900
H844        H  0.86980407  0.23053922  0.37422105     0.32300
H845        H  0.89353675  0.19626241  0.35002561     0.31200
H846        H  0.92583985  0.13950191  0.37221348     0.32900
H847        H  0.90869318  0.09992259  0.46047602     0.31900
H848        H  0.87114438  0.24356590  0.45059564     0.35900
H849        H  0.89392732  0.23308180  0.51472265     0.28600
H850        H  0.77826803  0.12552125  0.37715230     0.32800
H851        H  0.85700844  0.07150151  0.49166613     0.35700
H852        H  0.90461357  0.17332493  0.33395138     0.28300
H853        H  0.91363115  0.21795016  0.53361106     0.41200
H854        H  0.78318365  0.19744040  0.54093332     0.31200
H855        H  0.81170545  0.23721731  0.47395714     0.38800
H856        H  0.88976457  0.09482332  0.43081736     0.30700
H857        H  0.81227809  0.13346829  0.55833034     0.30700
H858        H  0.79108858  0.10409568  0.39562234     0.31000
Zr859      Zr  0.68863193  0.32852923  0.11813086     2.17500
O860        O  0.71831832  0.35515495  0.14295073    -0.51300
O861        O  0.70867307  0.30157208  0.16126861    -0.74600
O862        O  0.67357345  0.35352748  0.16765333    -0.81300
O863        O  0.72170560  0.32470964  0.02820271    -0.83100
O864        O  0.63586416  0.34262969  0.17899406    -0.78700
O865        O  0.72321908  0.34152378  0.08365330    -0.90300
O866        O  0.69102048  0.26564015  0.15810346    -0.76300
O867        O  0.66190212  0.29956401  0.14059875    -0.85800
O868        O  0.69460939  0.29383643  0.08255059    -0.85500
O869        O  0.65014307  0.34536572  0.10762307    -0.72200
O870        O  0.67981168  0.33876097  0.05625585    -0.84400
Zr871      Zr  0.61998739  0.29143475  0.03612242     2.26400
Zr872      Zr  0.62356528  0.31611934  0.13107708     2.06300
Zr873      Zr  0.68494473  0.30360159  0.02128212     2.10000
Zr874      Zr  0.66760407  0.26517333  0.10451259     1.78800
O875        O  0.69033939  0.32595111  0.96577719    -0.93200
O876        O  0.64625559  0.23941272  0.14579088    -0.41000
O877        O  0.65832286  0.27439138  0.04342106    -0.77600
O878        O  0.62895369  0.28058542  0.09706141    -0.96300
O879        O  0.61409767  0.32635909  0.07019205    -0.89600
O880        O  0.64656434  0.31977326  0.01185154    -0.92500
C881        C  0.70543090  0.28017150  0.17243068     1.01300
C882        C  0.73179630  0.33748618  0.05223291     1.14200
C883        C  0.65414117  0.35536131  0.18534377     1.05000
O884        O  0.61598745  0.29542271  0.18735062    -0.94600
O885        O  0.58602973  0.29551984  0.12478881    -0.90400
O886        O  0.58358415  0.28246682  0.06703780    -0.83500
C887        C  0.57545849  0.28468913  0.09901006     1.11600
O888        O  0.65801749  0.39338551  0.05799457    -0.96600
Zr889      Zr  0.64105084  0.35449856  0.04647322     1.88900
O890        O  0.59427908  0.31734624  0.00167574    -0.73200
O891        O  0.59354646  0.34565573  0.14311283    -0.52500
O892        O  0.61302353  0.38097427  0.07506147    -0.97200
O893        O  0.65635996  0.37340510  0.99240618    -0.54400
O894        O  0.60701391  0.35524700  0.00662824    -0.73700
C895        C  0.59259993  0.33956056  0.99492290     0.98600
O896        O  0.59770697  0.25580974  0.02132252    -0.62600
O897        O  0.71766040  0.27718347  0.00874855    -0.57400
O898        O  0.63155737  0.27410434  0.97897626    -0.94100
O899        O  0.67139627  0.27599636  0.97466087    -0.92500
O900        O  0.70247271  0.24339804  0.08613368    -0.92800
O901        O  0.65828891  0.22535635  0.08411407    -0.91600
C902        C  0.65106625  0.26895907  0.96358182     1.17400
H903        H  0.71070138  0.28852656  0.08463645     0.33400
H904        H  0.61846749  0.26824012  0.10512919     0.44200
H905        H  0.64350305  0.32255732  0.98662441     0.37800
H906        H  0.64800523  0.36049035  0.11896037     0.34200
H907        H  0.65846551  0.23214337  0.16129721     0.26000
H908        H  0.58164155  0.34353255  0.12389892     0.32000
H909        H  0.60490502  0.38919414  0.05503615     0.37900
H910        H  0.70697797  0.23392019  0.10749008     0.32300
H911        H  0.71216183  0.26142647  0.01679504     0.31200
H912        H  0.69096901  0.31397070  0.94647282     0.32900
H913        H  0.64744948  0.36623869  0.97229243     0.31900
H914        H  0.64779648  0.22766741  0.06309610     0.35900
H915        H  0.59165296  0.25810673  0.99656042     0.28600
H916        H  0.71980106  0.35077564  0.16865776     0.32800
H917        H  0.64859862  0.40462550  0.04344720     0.35700
H918        H  0.71828785  0.27608687  0.98220636     0.28300
H919        H  0.60952824  0.24304154  0.01948141     0.41200
H920        H  0.63151368  0.28943190  0.19527499     0.31200
H921        H  0.63771232  0.25029229  0.16189903     0.38800
H922        H  0.67247401  0.36706069  0.98989035     0.30700
H923        H  0.58570370  0.34001611  0.16528444     0.30700
H924        H  0.71109466  0.37106889  0.14293672     0.31000
Zr925      Zr  0.09061054  0.55169759  0.16279433     2.17500
O926        O  0.11424489  0.52429049  0.12749038    -0.51300
O927        O  0.06246688  0.53186965  0.12187747    -0.74600
O928        O  0.10209551  0.51623134  0.19631559    -0.81300
O929        O  0.10717093  0.60391735  0.10269852    -0.83100
O930        O  0.08294828  0.51606323  0.24979641    -0.78700
O931        O  0.11876223  0.56692337  0.11827013    -0.90300
O932        O  0.02571738  0.54606518  0.13182471    -0.76300
O933        O  0.05665548  0.54680142  0.19978904    -0.85800
O934        O  0.06203417  0.57896734  0.14054066    -0.85500
O935        O  0.10351061  0.56067025  0.22348908    -0.72200
O936        O  0.10797239  0.59013237  0.17043099    -0.84400
Zr937      Zr  0.05688742  0.62137481  0.24373010     2.26400
Zr938      Zr  0.06900255  0.55609276  0.25990637     2.06300
Zr939      Zr  0.07930678  0.61707802  0.14754595     2.10000
Zr940      Zr  0.02837340  0.57464381  0.17845811     1.78800
O941        O  0.10593043  0.64820531  0.12765351    -0.93200
O942        O  0.00202378  0.54420621  0.20167070    -0.41000
O943        O  0.04468474  0.61332952  0.18347322    -0.77600
O944        O  0.03962995  0.58288300  0.23840820    -0.96300
O945        O  0.08540294  0.59477427  0.26731788    -0.89600
O946        O  0.09088508  0.62687022  0.20768019    -0.92500
C947        C  0.04025910  0.53309201  0.11496342     1.01300
C948        C  0.12047512  0.58581138  0.09898447     1.14200
C949        C  0.09640219  0.50651675  0.22632605     1.05000
O950        O  0.04178703  0.52668995  0.28339730    -0.94600
O951        O  0.04571558  0.57077470  0.31052083    -0.90400
O952        O  0.04007290  0.61017998  0.30118469    -0.83500
C953        C  0.03737602  0.59107439  0.31950762     1.11600
O954        O  0.15768691  0.58213190  0.22112695    -0.96600
Zr955      Zr  0.11922122  0.59999439  0.23085825     1.88900
O956        O  0.08282227  0.64539176  0.27987778    -0.73200
O957        O  0.09757849  0.55041077  0.30816311    -0.52500
O958        O  0.13742510  0.58476451  0.28562921    -0.97200
O959        O  0.14629499  0.62697253  0.20062780    -0.54400
O960        O  0.12042753  0.63347377  0.27246052    -0.73700
C961        C  0.10483109  0.64689788  0.28680382     0.98600
O962        O  0.02190993  0.64205734  0.26474491    -0.62600
O963        O  0.05460401  0.62037830  0.09400012    -0.57400
O964        O  0.04873467  0.65782745  0.21140087    -0.94100
O965        O  0.06119202  0.65543524  0.15362757    -0.92500
O966        O  0.00505520  0.59486293  0.13284054    -0.92800
O967        O  0.99144763  0.59037935  0.20122828    -0.91600
C968        C  0.05122179  0.66630130  0.17959571     1.17400
H969        H  0.05845303  0.57650358  0.11543408     0.33400
H970        H  0.02543977  0.58165929  0.25247323     0.44200
H971        H  0.09640911  0.64301186  0.20879489     0.37800
H972        H  0.11570393  0.55000300  0.23148098     0.34200
H973        H  0.98876237  0.54371481  0.18434775     0.26000
H974        H  0.08800523  0.54848945  0.33015798     0.32000
H975        H  0.14847482  0.59729811  0.29347203     0.37900
H976        H  0.99088239  0.58485459  0.12973091     0.32300
H977        H  0.05473120  0.63739747  0.08772169     0.31200
H978        H  0.10015066  0.65268010  0.10342465     0.32900
H979        H  0.13874201  0.64269714  0.20175144     0.31900
H980        H  0.99437908  0.60752873  0.20414416     0.35900
H981        H  0.02705177  0.65832771  0.27064834     0.28600
H982        H  0.10602355  0.50885618  0.12864222     0.32800
H983        H  0.16921932  0.59293788  0.23251768     0.35700
H984        H  0.06370363  0.61276768  0.07460154     0.28300
H985        H  0.01155169  0.64376044  0.24343111     0.41200
H986        H  0.03109283  0.52324927  0.26300085     0.31200
H987        H  0.01042964  0.52911441  0.19789506     0.38800
H988        H  0.14540352  0.62253690  0.17492196     0.30700
H989        H  0.10448064  0.53459970  0.30407062     0.30700
H990        H  0.12902875  0.52196306  0.14119299     0.31000
Zr991      Zr  0.91040371  0.42282079  0.86857265     2.17500
O992        O  0.88472463  0.45439441  0.88949395    -0.51300
O993        O  0.93601673  0.44300628  0.91202217    -0.74600
O994        O  0.88398608  0.40953934  0.91728448    -0.81300
O995        O  0.92210292  0.45728546  0.78028470    -0.83100
O996        O  0.89272436  0.37144002  0.93141705    -0.78700
O997        O  0.90119962  0.45789437  0.83231711    -0.90300
O998        O  0.97275202  0.42762261  0.90812472    -0.76300
O999        O  0.93658493  0.39472054  0.89466835    -0.85800
O1000       O  0.94687587  0.42678717  0.83727283    -0.85500
O1001       O  0.89176584  0.38508438  0.85799830    -0.72200
O1002       O  0.90234804  0.41507506  0.80589060    -0.84400
Zr1003     Zr  0.94690039  0.35207252  0.79287425     2.26400
Zr1004     Zr  0.91848760  0.35699036  0.88464628     2.06300
Zr1005     Zr  0.93934011  0.41810172  0.77519705     2.10000
Zr1006     Zr  0.97268065  0.39819177  0.86247613     1.78800
O1007       O  0.92078472  0.42567222  0.71721727    -0.93200
O1008       O  0.99191343  0.37906987  0.91344680    -0.41000
O1009       O  0.96545445  0.38972574  0.80087135    -0.77600
O1010       O  0.95559980  0.36009632  0.85468498    -0.96300
O1011       O  0.91026902  0.34828873  0.82292707    -0.89600
O1012       O  0.92156570  0.38030372  0.76511599    -0.92500
C1013       C  0.95776406  0.44181929  0.92143639     1.01300
C1014       C  0.90805882  0.46727646  0.80253552     1.14200
C1015       C  0.88090888  0.39049060  0.93589946     1.05000
O1016       O  0.93797955  0.35006794  0.94209108    -0.94600
O1017       O  0.93646966  0.31791540  0.88130005    -0.90400
O1018       O  0.95100108  0.31471952  0.82468509    -0.83500
C1019       C  0.94717340  0.30655653  0.85636456     1.11600
O1020       O  0.84715276  0.39632427  0.80171277    -0.96600
Zr1021     Zr  0.88514296  0.37688119  0.79580284     1.88900
O1022       O  0.92207037  0.32856941  0.75375054    -0.73200
O1023       O  0.88746428  0.32780982  0.89399930    -0.52500
O1024       O  0.85394229  0.35069784  0.81684124    -0.97200
O1025       O  0.87047561  0.39275440  0.73896409    -0.54400
O1026       O  0.88479039  0.34239459  0.75749222    -0.73700
C1027       C  0.90014332  0.32783781  0.74563965     0.98600
O1028       O  0.98268218  0.33053445  0.77781388    -0.62600
O1029       O  0.97051383  0.44701496  0.76539870    -0.57400
O1030       O  0.96960992  0.36236951  0.74012756    -0.94100
O1031       O  0.96590471  0.40184028  0.72977945    -0.92500
O1032       O  0.99979203  0.42881011  0.84224141    -0.92800
O1033       O  0.01101758  0.38202666  0.84720083    -0.91600
C1034       C  0.97432521  0.38129766  0.72240659     1.17400
H1035       H  0.95314921  0.44258220  0.83987172     0.33400
H1036       H  0.96678650  0.34887149  0.86418701     0.44200
H1037       H  0.91989358  0.37722854  0.73970464     0.37800
H1038       H  0.87630254  0.38398361  0.86840295     0.34200
H1039       H  0.00424047  0.39037537  0.92117945     0.26000
H1040       H  0.88970045  0.32227067  0.91905943     0.32000
H1041       H  0.85009402  0.35608023  0.84141575     0.37900
H1042       H  0.01153046  0.43025420  0.86184952     0.32300
H1043       H  0.98528607  0.43828646  0.77010668     0.31200
H1044       H  0.92611743  0.44173496  0.71036853     0.32900
H1045       H  0.87985276  0.38494864  0.72005139     0.31900
H1046       H  0.00824152  0.36485932  0.84420220     0.35900
H1047       H  0.97758790  0.31456437  0.77017302     0.28600
H1048       H  0.88629787  0.45463698  0.91601392     0.32800
H1049       H  0.85095205  0.41334826  0.80394475     0.35700
H1050       H  0.97049743  0.44987245  0.73911608     0.28300
H1051       H  0.99113625  0.32811326  0.80086383     0.41200
H1052       H  0.93209522  0.33446514  0.95023017     0.31200
H1053       H  0.98010575  0.37947789  0.93293196     0.38800
H1054       H  0.87581223  0.40942337  0.73862269     0.30700
H1055       H  0.87266168  0.33698699  0.89454513     0.30700
H1056       H  0.86850264  0.44884093  0.88480357     0.31000
C1057       C  0.00121371  0.48057201  0.96888912    -0.02000
C1058       C  0.99204382  0.48134049  0.00391033     0.06600
C1059       C  0.96988406  0.47134612  0.01097471    -0.08000
C1060       C  0.95737456  0.45952132  0.98378955     0.04000
C1061       C  0.96717894  0.45781278  0.94912132    -0.15200
C1062       C  0.98883145  0.46880501  0.94193804    -0.08600
C1063       C  0.00491399  0.49385148  0.03268331     0.04900
C1064       C  0.00180293  0.51823833  0.03530522    -0.09700
C1065       C  0.01442669  0.53133160  0.06050423    -0.00100
C1066       C  0.03007778  0.51986931  0.08453992    -0.00200
C1067       C  0.03380426  0.49548346  0.08120267    -0.13200
C1068       C  0.02145719  0.48242616  0.05517291     0.00300
C1069       C  0.01173199  0.55671892  0.05999958     0.39600
C1070       C  0.02616679  0.45748349  0.05180520     0.36200
C1071       C  0.02346293  0.49148795  0.96013881     0.35900
C1072       C  0.93544026  0.44800318  0.99258872     0.36700
N1073       N  0.00970945  0.57705655  0.05899285    -0.44100
N1074       N  0.03018895  0.43752168  0.04916917    -0.44600
N1075       N  0.91790334  0.43865275  0.99955249    -0.41900
N1076       N  0.04125272  0.50029886  0.95309699    -0.43400
H1077       H  0.99642898  0.46759301  0.91527969     0.12800
H1078       H  0.96261029  0.47242890  0.03783095     0.09300
H1079       H  0.98976375  0.52712819  0.01705940     0.10400
H1080       H  0.04587625  0.48660099  0.09936715     0.16200
C1081       C  0.79096490  0.34314976  0.00679805    -0.02000
C1082       C  0.79864479  0.36583546  0.01715524     0.06600
C1083       C  0.78449238  0.37929502  0.04014678    -0.08000
C1084       C  0.76294351  0.37038897  0.05298747     0.04000
C1085       C  0.75511174  0.34766286  0.04226853    -0.15200
C1086       C  0.76949427  0.33434802  0.01927539    -0.08600
C1087       C  0.82067177  0.37605048  0.00207764     0.04900
C1088       C  0.81889303  0.39249791  0.97397622    -0.09700
C1089       C  0.83859664  0.39869341  0.95336541    -0.00100
C1090       C  0.86095360  0.38905473  0.96172925    -0.00200
C1091       C  0.86289183  0.37384957  0.99167787    -0.13200
C1092       C  0.84299093  0.36709162  0.01147360     0.00300
C1093       C  0.83450517  0.41220205  0.92096966     0.39600
C1094       C  0.84555668  0.34968402  0.03970116     0.36200
C1095       C  0.80455721  0.32876815  0.98252549     0.35900
C1096       C  0.74890853  0.38548130  0.07553901     0.36700
N1097       N  0.83079532  0.42259332  0.89471729    -0.44100
N1098       N  0.84745451  0.33553937  0.06207027    -0.44600
N1099       N  0.73795326  0.39792570  0.09352935    -0.41900
N1100       N  0.81550105  0.31722345  0.96318783    -0.43400
H1101       H  0.76386326  0.31690932  0.01071684     0.12800
H1102       H  0.79018721  0.39690277  0.04772744     0.09300
H1103       H  0.80166458  0.39899534  0.96619516     0.10400
H1104       H  0.87977490  0.36602861  0.99825297     0.16200
C1105       C  0.85962909  0.28268735  0.70263892    -0.02000
C1106       C  0.87463535  0.27163587  0.67781543     0.06600
C1107       C  0.89793464  0.27951467  0.67455722    -0.08000
C1108       C  0.90659358  0.29787896  0.69591832     0.04000
C1109       C  0.89177104  0.30869720  0.72152600    -0.15200
C1110       C  0.86828190  0.30094114  0.72434131    -0.08600
C1111       C  0.86636833  0.25245791  0.65375943     0.04900
C1112       C  0.84857706  0.25729475  0.62854659    -0.09700
C1113       C  0.84262167  0.24076255  0.60209648    -0.00100
C1114       C  0.85485567  0.21912155  0.60042670    -0.00200
C1115       C  0.87177564  0.21381683  0.62673181    -0.13200
C1116       C  0.87747099  0.23017989  0.65347492     0.00300
C1117       C  0.82523270  0.24719028  0.57542684     0.39600
C1118       C  0.89511163  0.22395622  0.67987088     0.36200
C1119       C  0.83539461  0.27543708  0.70647860     0.35900
C1120       C  0.93040339  0.30582088  0.68966091     0.36700
N1121       N  0.81125412  0.25244105  0.55418070    -0.44100
N1122       N  0.90923900  0.21902165  0.70106068    -0.44600
N1123       N  0.94945101  0.31219433  0.68445397    -0.41900
N1124       N  0.81594413  0.26965002  0.70919238    -0.43400
H1125       H  0.85663922  0.30899903  0.74379008     0.12800
H1126       H  0.90932404  0.27147985  0.65471789     0.09300
H1127       H  0.84010573  0.27445648  0.62849163     0.10400
H1128       H  0.88109880  0.19713447  0.62562548     0.16200
C1129       C  0.75267338  0.23662204  0.32387150    -0.02000
C1130       C  0.75361792  0.23029313  0.28727129     0.06600
C1131       C  0.76645200  0.21010349  0.27728981    -0.08000
C1132       C  0.77870949  0.19666939  0.30315613     0.04000
C1133       C  0.77789302  0.20327025  0.33964649    -0.15200
C1134       C  0.76452032  0.22303039  0.34957170    -0.08600
C1135       C  0.74128144  0.24457211  0.25923694     0.04900
C1136       C  0.75439588  0.25767136  0.23407753    -0.09700
C1137       C  0.74316761  0.27088924  0.20685017    -0.00100
C1138       C  0.71838462  0.27080810  0.20423479    -0.00200
C1139       C  0.70538626  0.25812979  0.23007148    -0.13200
C1140       C  0.71653372  0.24529403  0.25747935     0.00300
C1141       C  0.75744740  0.28323439  0.18085429     0.39600
C1142       C  0.70223450  0.23248937  0.28304015     0.36200
C1143       C  0.74078052  0.25775625  0.33555845     0.35900
C1144       C  0.79361208  0.17755398  0.29147565     0.36700
N1145       N  0.76897726  0.29311866  0.16006926    -0.44100
N1146       N  0.69093790  0.22236637  0.30386670    -0.44600
N1147       N  0.80581697  0.16234098  0.28250385    -0.41900
N1148       N  0.73133297  0.27469997  0.34509308    -0.43400
H1149       H  0.76432012  0.22858117  0.37747728     0.12800
H1150       H  0.76735843  0.20520419  0.24917013     0.09300
H1151       H  0.77344623  0.25736507  0.23552224     0.10400
H1152       H  0.68633585  0.25779791  0.22829121     0.16200
C1153       C  0.53071608  0.34129460  0.95748951    -0.02000
C1154       C  0.53274704  0.35763176  0.92899620     0.06600
C1155       C  0.55401100  0.36985059  0.92427434    -0.08000
C1156       C  0.57357592  0.36506550  0.94619691     0.04000
C1157       C  0.57210831  0.34730285  0.97300566    -0.15200
C1158       C  0.55035713  0.33605098  0.97884031    -0.08600
C1159       C  0.51366534  0.36080916  0.90199573     0.04900
C1160       C  0.50239015  0.38271987  0.89874917    -0.09700
C1161       C  0.48561082  0.38683080  0.87161010    -0.00100
C1162       C  0.48000753  0.36873305  0.84657051    -0.00200
C1163       C  0.49100181  0.34653858  0.85096790    -0.13200
C1164       C  0.50763571  0.34252616  0.87806351     0.00300
C1165       C  0.47482405  0.40987991  0.87034012     0.39600
C1166       C  0.51901143  0.31971871  0.87982597     0.36200
C1167       C  0.50865850  0.32965357  0.96512678     0.35900
C1168       C  0.59500321  0.37801700  0.93935741     0.36700
N1169       N  0.46630150  0.42843583  0.86979019    -0.44100
N1170       N  0.52807832  0.30144520  0.88140989    -0.44600
N1171       N  0.61187846  0.38879813  0.93342703    -0.41900
N1172       N  0.49092850  0.32040694  0.97118420    -0.43400
H1173       H  0.54870535  0.32301372  0.00014954     0.12800
H1174       H  0.55554096  0.38263112  0.90259110     0.09300
H1175       H  0.50694262  0.39677087  0.91730991     0.10400
H1176       H  0.48720014  0.33222606  0.83253265     0.16200
C1177       C  0.64167973  0.45404251  0.28953341    -0.02000
C1178       C  0.62863412  0.43888665  0.26674318     0.06600
C1179       C  0.60512653  0.44462261  0.25934230    -0.08000
C1180       C  0.59486282  0.46534751  0.27271783     0.04000
C1181       C  0.60822170  0.48140231  0.29379651    -0.15200
C1182       C  0.63151556  0.47509584  0.30266289    -0.08600
C1183       C  0.63864165  0.41687214  0.25021139     0.04900
C1184       C  0.62844284  0.39490132  0.25857595    -0.09700
C1185       C  0.63463802  0.37425514  0.23991638    -0.00100
C1186       C  0.65131803  0.37520096  0.21168633    -0.00200
C1187       C  0.66253368  0.39698356  0.20478053    -0.13200
C1188       C  0.65627090  0.41765440  0.22349958     0.00300
C1189       C  0.62327309  0.35238701  0.25006902     0.39600
C1190       C  0.66699222  0.43976346  0.21301738     0.36200
C1191       C  0.66531647  0.44805543  0.30039326     0.35900
C1192       C  0.57019988  0.46906947  0.26541157     0.36700
N1193       N  0.61415494  0.33488168  0.25827567    -0.44100
N1194       N  0.67559101  0.45750873  0.20470225    -0.44600
N1195       N  0.55035157  0.47158689  0.25965849    -0.41900
N1196       N  0.68422291  0.44312411  0.30921386    -0.43400
H1197       H  0.64199793  0.48686505  0.31920651     0.12800
H1198       H  0.59469775  0.43283141  0.24271536     0.09300
H1199       H  0.61500837  0.39400669  0.27916947     0.10400
H1200       H  0.67514003  0.39826817  0.18304276     0.16200
C1201       C  0.50894365  0.52345319  0.50758017    -0.02000
C1202       C  0.51351874  0.49943415  0.51449887     0.06600
C1203       C  0.53064162  0.48772796  0.49395745    -0.08000
C1204       C  0.54258307  0.49944249  0.46599205     0.04000
C1205       C  0.53747683  0.52334978  0.45835439    -0.15200
C1206       C  0.52088612  0.53513556  0.47990408    -0.08600
C1207       C  0.50036604  0.48624122  0.54273846     0.04900
C1208       C  0.47613907  0.48200761  0.53828837    -0.09700
C1209       C  0.46340925  0.46868172  0.56361697    -0.00100
C1210       C  0.47494217  0.45961357  0.59442116    -0.00200
C1211       C  0.49902343  0.46482665  0.59933429    -0.13200
C1212       C  0.51173077  0.47773069  0.57381357     0.00300
C1213       C  0.43905640  0.46334021  0.55607865     0.39600
C1214       C  0.53649305  0.48186279  0.57999606     0.36200
C1215       C  0.49201700  0.53647937  0.52850792     0.35900
C1216       C  0.55880472  0.48618509  0.44422031     0.36700
N1217       N  0.41956506  0.45890794  0.55000546    -0.44100
N1218       N  0.55635484  0.48507106  0.58489435    -0.44600
N1219       N  0.57176813  0.47558089  0.42662850    -0.41900
N1220       N  0.47842782  0.54689263  0.54524598    -0.43400
H1221       H  0.51686457  0.55356890  0.47464856     0.12800
H1222       H  0.53421240  0.46920719  0.49919005     0.09300
H1223       H  0.46731750  0.48854794  0.51435640     0.10400
H1224       H  0.50823486  0.45826828  0.62291999     0.16200
C1225       C  0.47739291  0.22389482  0.13972954    -0.02000
C1226       C  0.49446653  0.22417483  0.11230095     0.06600
C1227       C  0.49284158  0.20765609  0.08435435    -0.08000
C1228       C  0.47355008  0.19235019  0.08177658     0.04000
C1229       C  0.45541873  0.19336675  0.10765639    -0.15200
C1230       C  0.45810062  0.20845231  0.13731834    -0.08600
C1231       C  0.51369234  0.24201948  0.11129515     0.04900
C1232       C  0.53098565  0.24187116  0.13827952    -0.09700
C1233       C  0.55060025  0.25685809  0.13615275    -0.00100
C1234       C  0.55305576  0.27239315  0.10652751    -0.00200
C1235       C  0.53517492  0.27329508  0.08047068    -0.13200
C1236       C  0.51562105  0.25832449  0.08260587     0.00300
C1237       C  0.56881229  0.25439897  0.16305589     0.39600
C1238       C  0.49805560  0.25964767  0.05453036     0.36200
C1239       C  0.47839808  0.24047091  0.16910934     0.35900
C1240       C  0.47270299  0.17592274  0.05212290     0.36700
N1241       N  0.58335313  0.25220456  0.18465187    -0.44100
N1242       N  0.48408261  0.26069079  0.03188329    -0.44600
N1243       N  0.47227356  0.16273267  0.02840235    -0.41900
N1244       N  0.47924210  0.25382046  0.19258708    -0.43400
H1245       H  0.44427925  0.20941840  0.15727924     0.12800
H1246       H  0.50635660  0.20725650  0.06384476     0.09300
H1247       H  0.52965906  0.22927677  0.16023608     0.10400
H1248       H  0.53691892  0.28516744  0.05765021     0.16200
C1249       C  0.35758070  0.28462938  0.83776911    -0.02000
C1250       C  0.37113930  0.26426137  0.84391959     0.06600
C1251       C  0.39141679  0.26041446  0.82363458    -0.08000
C1252       C  0.39925467  0.27730904  0.79892563     0.04000
C1253       C  0.38661942  0.29874500  0.79438208    -0.15200
C1254       C  0.36534439  0.30166831  0.81313282    -0.08600
C1255       C  0.36658413  0.24862745  0.87495738     0.04900
C1256       C  0.34879256  0.23148080  0.87321845    -0.09700
C1257       C  0.34469816  0.21622723  0.90238618    -0.00100
C1258       C  0.35855978  0.21827816  0.93392909    -0.00200
C1259       C  0.37613267  0.23578389  0.93539850    -0.13200
C1260       C  0.38028817  0.25076568  0.90633219     0.00300
C1261       C  0.32699546  0.19809705  0.89843199     0.39600
C1262       C  0.39879640  0.26822393  0.90926695     0.36200
C1263       C  0.33630163  0.28886567  0.85778406     0.35900
C1264       C  0.42045117  0.27201964  0.77926000     0.36700
N1265       N  0.31281064  0.18358243  0.89487883    -0.44100
N1266       N  0.41367509  0.28213990  0.91151141    -0.44600
N1267       N  0.43749653  0.26745449  0.76388383    -0.41900
N1268       N  0.31921758  0.29207873  0.87384547    -0.43400
H1269       H  0.35522345  0.31775420  0.80980232     0.12800
H1270       H  0.40169564  0.24454710  0.82829879     0.09300
H1271       H  0.33838136  0.22980646  0.84886397     0.10400
H1272       H  0.38676619  0.23784247  0.95944306     0.16200
C1273       C  0.98088578  0.22234054  0.38549280    -0.02000
C1274       C  0.99673501  0.22620498  0.41405015     0.06600
C1275       C  0.99135703  0.21764045  0.44842270    -0.08000
C1276       C  0.97031809  0.20573539  0.45498690     0.04000
C1277       C  0.95390048  0.20245197  0.42671957    -0.15200
C1278       C  0.95967885  0.21041903  0.39195065    -0.08600
C1279       C  0.01862210  0.24003499  0.40972463     0.04900
C1280       C  0.01707778  0.26425596  0.40143006    -0.09700
C1281       C  0.03690862  0.27887435  0.40410757    -0.00100
C1282       C  0.05845023  0.26908772  0.41534924    -0.00200
C1283       C  0.06025715  0.24473355  0.42155994    -0.13200
C1284       C  0.04060379  0.23016346  0.41882045     0.00300
C1285       C  0.03441839  0.30399186  0.39816568     0.39600
C1286       C  0.04328185  0.20533430  0.42698344     0.36200
C1287       C  0.98603205  0.23047430  0.34952952     0.35900
C1288       C  0.96637940  0.19686330  0.49094800     0.36700
N1289       N  0.03266038  0.32415878  0.39358901    -0.44100
N1290       N  0.04555798  0.18549715  0.43380764    -0.44600
N1291       N  0.96338491  0.18982831  0.51982621    -0.41900
N1292       N  0.99019884  0.23705331  0.32074771    -0.43400
H1293       H  0.94733491  0.20794591  0.36998066     0.12800
H1294       H  0.00358025  0.22060715  0.47044098     0.09300
H1295       H  0.00013289  0.27195122  0.39490521     0.10400
H1296       H  0.07698425  0.23720043  0.42979030     0.16200
C1297       C  0.34401740  0.36944725  0.51529460    -0.02000
C1298       C  0.32130076  0.37677679  0.52533140     0.06600
C1299       C  0.31883555  0.39187552  0.55491697    -0.08000
C1300       C  0.33828681  0.39796263  0.57641114     0.04000
C1301       C  0.36085218  0.38887535  0.56827712    -0.15200
C1302       C  0.36349272  0.37551947  0.53664452    -0.08600
C1303       C  0.29985508  0.36568909  0.50947893     0.04900
C1304       C  0.29548393  0.34181821  0.51728397    -0.09700
C1305       C  0.27447055  0.33086647  0.50670636    -0.00100
C1306       C  0.25779074  0.34346271  0.48581225    -0.00200
C1307       C  0.26245899  0.36728606  0.47726509    -0.13200
C1308       C  0.28293318  0.37860983  0.48984619     0.00300
C1309       C  0.27020369  0.30703244  0.51912921     0.39600
C1310       C  0.28579326  0.40364714  0.48369384     0.36200
C1311       C  0.34755735  0.35479640  0.48405608     0.35900
C1312       C  0.33397171  0.41148973  0.60853483     0.36700
N1313       N  0.26682173  0.28812066  0.52991559    -0.44100
N1314       N  0.28803182  0.42379209  0.47935632    -0.44600
N1315       N  0.33025851  0.42225384  0.63429412    -0.41900
N1316       N  0.35033265  0.34307963  0.45898258    -0.43400
H1317       H  0.38069169  0.36875325  0.52955115     0.12800
H1318       H  0.30138090  0.39752501  0.56278777     0.09300
H1319       H  0.30813166  0.33198766  0.53329550     0.10400
H1320       H  0.24947391  0.37744549  0.46243683     0.16200
C1321       C  0.27070781  0.20929574  0.25487849    -0.02000
C1322       C  0.25652328  0.22903167  0.24627625     0.06600
C1323       C  0.25288872  0.23489721  0.21005940    -0.08000
C1324       C  0.26399981  0.22217817  0.18264870     0.04000
C1325       C  0.27934519  0.20332402  0.19124316    -0.15200
C1326       C  0.28208538  0.19670292  0.22743822    -0.08600
C1327       C  0.24384300  0.24260896  0.27449356     0.04900
C1328       C  0.25158628  0.26528530  0.28474040    -0.09700
C1329       C  0.23983097  0.27818908  0.31171073    -0.00100
C1330       C  0.22014502  0.26816336  0.32934276    -0.00200
C1331       C  0.21216914  0.24573565  0.31765480    -0.13200
C1332       C  0.22363309  0.23316247  0.29067364     0.00300
C1333       C  0.24833619  0.30149503  0.32055494     0.39600
C1334       C  0.21405595  0.21066593  0.27947011     0.36200
C1335       C  0.27406437  0.20193777  0.29174246     0.35900
C1336       C  0.25913390  0.22854832  0.14573714     0.36700
N1337       N  0.25505371  0.32028931  0.32733716    -0.44100
N1338       N  0.20641359  0.19269244  0.27026320    -0.44600
N1339       N  0.25512591  0.23350036  0.11613194    -0.41900
N1340       N  0.27656017  0.19603045  0.32132870    -0.43400
H1341       H  0.29387501  0.18234035  0.23439522     0.12800
H1342       H  0.24123742  0.24939530  0.20320079     0.09300
H1343       H  0.26688823  0.27286915  0.27171563     0.10400
H1344       H  0.19664032  0.23777637  0.32948312     0.16200
C1345       C  0.06202898  0.38001517  0.60323576    -0.02000
C1346       C  0.04039471  0.36795711  0.60564807     0.06600
C1347       C  0.03536263  0.34982138  0.58126718    -0.08000
C1348       C  0.05202859  0.34268401  0.55585506     0.04000
C1349       C  0.07432825  0.35396019  0.55441374    -0.15200
C1350       C  0.07866417  0.37316698  0.57751685    -0.08600
C1351       C  0.02388664  0.37212846  0.63580581     0.04900
C1352       C  0.00542632  0.38833893  0.63182427    -0.09700
C1353       C  0.98920810  0.39194102  0.65971550    -0.00100
C1354       C  0.99124432  0.37894921  0.69216198    -0.00200
C1355       C  0.00986817  0.36275596  0.69587436    -0.13200
C1356       C  0.02615363  0.35940730  0.66823298     0.00300
C1357       C  0.97014812  0.40828775  0.65368113     0.39600
C1358       C  0.04514161  0.34282652  0.67365545     0.36200
C1359       C  0.06788549  0.39870519  0.62805047     0.35900
C1360       C  0.04569344  0.32358713  0.53198305     0.36700
N1361       N  0.95487407  0.42139453  0.64871165    -0.44100
N1362       N  0.06044202  0.32963759  0.67789248    -0.44600
N1363       N  0.04047155  0.30821490  0.51308605    -0.41900
N1364       N  0.07250791  0.41361569  0.64811213    -0.43400
H1365       H  0.09553722  0.38212493  0.57674826     0.12800
H1366       H  0.01864128  0.34061968  0.58300799     0.09300
H1367       H  0.00358365  0.39802597  0.60676573     0.10400
H1368       H  0.01186090  0.35277645  0.72064569     0.16200
C1369       C  0.10215490  0.44518928  0.26615386    -0.02000
C1370       C  0.12652436  0.44081986  0.26307033     0.06600
C1371       C  0.14060852  0.45732211  0.24477873    -0.08000
C1372       C  0.13094935  0.47831574  0.23091005     0.04000
C1373       C  0.10673660  0.48317764  0.23558149    -0.15200
C1374       C  0.09256694  0.46625734  0.25274278    -0.08600
C1375       C  0.13756758  0.41980828  0.28065753     0.04900
C1376       C  0.13129985  0.39707777  0.26909978    -0.09700
C1377       C  0.13836636  0.37696028  0.28842542    -0.00100
C1378       C  0.15207074  0.37934576  0.32012971    -0.00200
C1379       C  0.15984494  0.40200490  0.33002674    -0.13200
C1380       C  0.15266869  0.42214237  0.31070405     0.00300
C1381       C  0.13096782  0.35409940  0.27535173     0.39600
C1382       C  0.15965087  0.44511750  0.32376075     0.36200
C1383       C  0.08674709  0.42883534  0.28447130     0.35900
C1384       C  0.14657070  0.49521080  0.21416732     0.36700
N1385       N  0.12503072  0.33585987  0.26457789    -0.44100
N1386       N  0.16524595  0.46354632  0.33419704    -0.44600
N1387       N  0.15908544  0.50877203  0.20079892    -0.41900
N1388       N  0.07432111  0.41574736  0.29904800    -0.43400
H1389       H  0.07397296  0.46974693  0.25636942     0.12800
H1390       H  0.15931334  0.45405904  0.24217240     0.09300
H1391       H  0.12009858  0.39511329  0.24562126     0.10400
H1392       H  0.17017334  0.40417768  0.35437074     0.16200
C1393       C  0.18237199  0.58464112  0.06167766    -0.02000
C1394       C  0.18041983  0.60030774  0.03220040     0.06600
C1395       C  0.15811248  0.60818437  0.02161983    -0.08000
C1396       C  0.13806181  0.60216390  0.04141101     0.04000
C1397       C  0.14010438  0.58799321  0.07273650    -0.15200
C1398       C  0.16227915  0.57855974  0.08161328    -0.08600
C1399       C  0.20151397  0.61050533  0.01429871     0.04900
C1400       C  0.21597063  0.59608817  0.99320133    -0.09700
C1401       C  0.23690015  0.60492252  0.97827679    -0.00100
C1402       C  0.24366904  0.62864913  0.98452284    -0.00200
C1403       C  0.22861497  0.64322984  0.00452210    -0.13200
C1404       C  0.20773958  0.63443129  0.01927268     0.00300
C1405       C  0.25181853  0.58875256  0.95902397     0.39600
C1406       C  0.19353273  0.65005067  0.04082049     0.36200
C1407       C  0.20499863  0.57581498  0.07322586     0.35900
C1408       C  0.11567709  0.61114991  0.02914580     0.36700
N1409       N  0.26371918  0.57561741  0.94378874    -0.44100
N1410       N  0.18215457  0.66258891  0.05803376    -0.44600
N1411       N  0.09781384  0.61842648  0.01909644    -0.41900
N1412       N  0.22318205  0.56876496  0.08227410    -0.43400
H1413       H  0.16420851  0.56763405  0.10545396     0.12800
H1414       H  0.15650004  0.61984498  0.99853005     0.09300
H1415       H  0.21119155  0.57770891  0.98922382     0.10400
H1416       H  0.23352922  0.66146834  0.00955775     0.16200
C1417       C  0.45429343  0.59132746  0.08143143    -0.02000
C1418       C  0.46306762  0.60611013  0.10886054     0.06600
C1419       C  0.45323838  0.62858400  0.11342804    -0.08000
C1420       C  0.43492478  0.63654145  0.09142735     0.04000
C1421       C  0.42605442  0.62187820  0.06367851    -0.15200
C1422       C  0.43584022  0.59921174  0.05930480    -0.08600
C1423       C  0.48264163  0.59907835  0.13321089     0.04900
C1424       C  0.50273421  0.61349334  0.13440130    -0.09700
C1425       C  0.52006068  0.61011267  0.16066493    -0.00100
C1426       C  0.51779470  0.59146121  0.18586320    -0.00200
C1427       C  0.49827761  0.57629372  0.18354437    -0.13200
C1428       C  0.48053650  0.58020215  0.15794887     0.00300
C1429       C  0.53956288  0.62653541  0.16174340     0.39600
C1430       C  0.45961848  0.56573062  0.15942015     0.36200
C1431       C  0.46438251  0.56834932  0.07486899     0.35900
C1432       C  0.42524321  0.65957540  0.09896805     0.36700
N1433       N  0.55499629  0.63989825  0.16267546    -0.44100
N1434       N  0.44286906  0.55409877  0.16058950    -0.44600
N1435       N  0.41761467  0.67805979  0.10515231    -0.41900
N1436       N  0.47246061  0.54989248  0.06989012    -0.43400
H1437       H  0.42942442  0.58778365  0.03805348     0.12800
H1438       H  0.45982319  0.63994512  0.13467454     0.09300
H1439       H  0.50438093  0.62810683  0.11559735     0.10400
H1440       H  0.49610516  0.56230633  0.20328674     0.16200
C1441       C  0.35353851  0.54643260  0.82396063    -0.02000
C1442       C  0.36524991  0.54823810  0.79067294     0.06600
C1443       C  0.36918479  0.57070029  0.77574462    -0.08000
C1444       C  0.36281877  0.59124674  0.79444667     0.04000
C1445       C  0.35173526  0.58946127  0.82836213    -0.15200
C1446       C  0.34652683  0.56691707  0.84215826    -0.08600
C1447       C  0.37591930  0.52708699  0.77340183     0.04900
C1448       C  0.36423713  0.51558960  0.74516519    -0.09700
C1449       C  0.37345943  0.49485358  0.72982803    -0.00100
C1450       C  0.39487364  0.48512798  0.74297430    -0.00200
C1451       C  0.40664896  0.49721494  0.77086707    -0.13200
C1452       C  0.39747906  0.51794631  0.78583239     0.00300
C1453       C  0.35984483  0.48363028  0.70187402     0.39600
C1454       C  0.41045231  0.52965852  0.81411232     0.36200
C1455       C  0.35001181  0.52376357  0.84105425     0.35900
C1456       C  0.36837817  0.61394046  0.77869527     0.36700
N1457       N  0.34849437  0.47504200  0.67956078    -0.44100
N1458       N  0.42071008  0.53925700  0.83670400    -0.44600
N1459       N  0.37290450  0.63210001  0.76604194    -0.41900
N1460       N  0.34747186  0.50556739  0.85482000    -0.43400
H1461       H  0.33848056  0.56529065  0.86845748     0.12800
H1462       H  0.37829145  0.57219659  0.75026417     0.09300
H1463       H  0.34761388  0.52259727  0.73555040     0.10400
H1464       H  0.42313395  0.49039356  0.78129472     0.16200
C1465       C  0.14384700  0.69047891  0.33766202    -0.02000
C1466       C  0.12801624  0.70044183  0.36245712     0.06600
C1467       C  0.10449642  0.69312518  0.36195040    -0.08000
C1468       C  0.09655443  0.67601039  0.33765586     0.04000
C1469       C  0.11248219  0.66538301  0.31313714    -0.15200
C1470       C  0.13611302  0.67293069  0.31366927    -0.08600
C1471       C  0.13526471  0.71871917  0.38907847     0.04900
C1472       C  0.12522315  0.74133195  0.38683023    -0.09700
C1473       C  0.12974043  0.75839084  0.41323521    -0.00100
C1474       C  0.14483284  0.75308529  0.44234820    -0.00200
C1475       C  0.15541010  0.73069408  0.44414272    -0.13200
C1476       C  0.15042099  0.71340152  0.41815768     0.00300
C1477       C  0.11858330  0.78122539  0.41013794     0.39600
C1478       C  0.15952130  0.68981735  0.42332989     0.36200
C1479       C  0.16784761  0.69867785  0.33539904     0.35900
C1480       C  0.07186147  0.67001734  0.33881292     0.36700
N1481       N  0.10972178  0.79957095  0.40788277    -0.44100
N1482       N  0.16656907  0.67082445  0.42750323    -0.44600
N1483       N  0.05199457  0.66556769  0.33938464    -0.41900
N1484       N  0.18704730  0.70536902  0.33341089    -0.43400
H1485       H  0.14852905  0.66550117  0.29477675     0.12800
H1486       H  0.09221479  0.70088862  0.38078020     0.09300
H1487       H  0.11337980  0.74546778  0.36477542     0.10400
H1488       H  0.16649448  0.72626579  0.46697555     0.16200
C1489       C  0.26677808  0.71228566  0.77787373    -0.02000
C1490       C  0.25274429  0.73160473  0.78878659     0.06600
C1491       C  0.24893780  0.73510278  0.82562648    -0.08000
C1492       C  0.25983309  0.72073340  0.85140089     0.04000
C1493       C  0.27496816  0.70229160  0.84065496    -0.15200
C1494       C  0.27784422  0.69788509  0.80380406    -0.08600
C1495       C  0.24049898  0.74751014  0.76263989     0.04900
C1496       C  0.21591197  0.74886061  0.76415487    -0.09700
C1497       C  0.20325145  0.76240651  0.73930630    -0.00100
C1498       C  0.21515100  0.77495107  0.71186754    -0.00200
C1499       C  0.23983282  0.77503086  0.71177167    -0.13200
C1500       C  0.25257011  0.76156968  0.73705180     0.00300
C1501       C  0.17792461  0.76290315  0.74233704     0.39600
C1502       C  0.27792369  0.76257515  0.73623804     0.36200
C1503       C  0.26998577  0.70684010  0.74032346     0.35900
C1504       C  0.25557837  0.72554100  0.88895491     0.36700
N1505       N  0.15765473  0.76328485  0.74495787    -0.44100
N1506       N  0.29825077  0.76347709  0.73543279    -0.44600
N1507       N  0.25222686  0.72934444  0.91905605    -0.41900
N1508       N  0.27257348  0.70255068  0.71019418    -0.43400
H1509       H  0.28959184  0.68392637  0.79526097     0.12800
H1510       H  0.23770400  0.74944884  0.83432934     0.09300
H1511       H  0.20648387  0.73876540  0.78436389     0.10400
H1512       H  0.24913810  0.78471623  0.69099346     0.16200
C1513       C  0.00941653  0.77493232  0.15673455    -0.02000
C1514       C  0.99937969  0.75219142  0.15499104     0.06600
C1515       C  0.97479770  0.74968057  0.15507504    -0.08000
C1516       C  0.96025198  0.76949017  0.15906825     0.04000
C1517       C  0.97045916  0.79205142  0.16311467    -0.15200
C1518       C  0.99493924  0.79463821  0.16092013    -0.08600
C1519       C  0.01424067  0.73094094  0.15924473     0.04900
C1520       C  0.02497927  0.72714384  0.19272525    -0.09700
C1521       C  0.03840217  0.70695417  0.19922326    -0.00100
C1522       C  0.04069448  0.68969429  0.17208960    -0.00200
C1523       C  0.03090952  0.69412666  0.13789874    -0.13200
C1524       C  0.01779285  0.71463952  0.13129452     0.00300
C1525       C  0.05014643  0.70481463  0.23359392     0.39600
C1526       C  0.00839173  0.71871617  0.09572299     0.36200
C1527       C  0.03460118  0.77822865  0.15580993     0.35900
C1528       C  0.93513961  0.76609936  0.16162057     0.36700
N1529       N  0.05970208  0.70326576  0.26102487    -0.44100
N1530       N  0.00106266  0.72199322  0.06707345    -0.44600
N1531       N  0.91501349  0.76337340  0.16376137    -0.41900
N1532       N  0.05480855  0.78064837  0.15509783    -0.43400
H1533       H  0.00279219  0.81203488  0.16374358     0.12800
H1534       H  0.96706519  0.73214828  0.15411064     0.09300
H1535       H  0.02273608  0.74003595  0.21397175     0.10400
H1536       H  0.03284735  0.68122220  0.11661688     0.16200
C1537       C  0.87781231  0.07934072  0.27559342    -0.02000
C1538       C  0.86948627  0.05661086  0.28462023     0.06600
C1539       C  0.85429590  0.05395148  0.31395133    -0.08000
C1540       C  0.84828689  0.07329458  0.33544197     0.04000
C1541       C  0.85720948  0.09607833  0.32721163    -0.15200
C1542       C  0.87156147  0.09882533  0.29668495    -0.08600
C1543       C  0.87876572  0.03504707  0.26692693     0.04900
C1544       C  0.90271283  0.02983760  0.27094750    -0.09700
C1545       C  0.91206328  0.00873794  0.25786259    -0.00100
C1546       C  0.89731115  0.99220512  0.24035201    -0.00200
C1547       C  0.87345233  0.99780885  0.23510225    -0.13200
C1548       C  0.86410392  0.01902880  0.24836839     0.00300
C1549       C  0.93695734  0.00470374  0.26251286     0.39600
C1550       C  0.83950953  0.02414529  0.24266152     0.36200
C1551       C  0.89333688  0.08282340  0.24537104     0.35900
C1552       C  0.83501128  0.06861001  0.36773228     0.36700
N1553       N  0.95695331  0.00180789  0.26630476    -0.44100
N1554       N  0.81983922  0.02849883  0.23814751    -0.44600
N1555       N  0.82460272  0.06459733  0.39373843    -0.41900
N1556       N  0.90584979  0.08523992  0.22115492    -0.43400
H1557       H  0.87858780  0.11611955  0.28997607     0.12800
H1558       H  0.84826708  0.03640218  0.32139858     0.09300
H1559       H  0.91407394  0.04212405  0.28514883     0.10400
H1560       H  0.86194996  0.98525868  0.22175545     0.16200
C1561       C  0.04230789  0.84139597  0.43293881    -0.02000
C1562       C  0.03552386  0.86528410  0.42943290     0.06600
C1563       C  0.04807913  0.88254554  0.44868367    -0.08000
C1564       C  0.06757341  0.87655282  0.47003398     0.04000
C1565       C  0.07414428  0.85250625  0.47411368    -0.15200
C1566       C  0.06115801  0.83526872  0.45528385    -0.08600
C1567       C  0.01670259  0.87265323  0.40364090     0.04900
C1568       C  0.99443475  0.86179953  0.40514109    -0.09700
C1569       C  0.97776348  0.86548917  0.37783590    -0.00100
C1570       C  0.98265754  0.88150424  0.34968632    -0.00200
C1571       C  0.00417471  0.89364320  0.34953430    -0.13200
C1572       C  0.02137006  0.88895567  0.37563799     0.00300
C1573       C  0.95622158  0.85190873  0.37835849     0.39600
C1574       C  0.04434340  0.89951683  0.37128372     0.36200
C1575       C  0.03089857  0.82279577  0.41281662     0.35900
C1576       C  0.08060770  0.89564971  0.48642633     0.36700
N1577       N  0.93908456  0.84082775  0.37848060    -0.44100
N1578       N  0.06286401  0.90776041  0.36803349    -0.44600
N1579       N  0.09114856  0.91110495  0.49897374    -0.41900
N1580       N  0.02175865  0.80784461  0.39680502    -0.43400
H1581       H  0.06596560  0.81677211  0.45737610     0.12800
H1582       H  0.04299535  0.90095132  0.44621150     0.09300
H1583       H  0.99052913  0.84946809  0.42670658     0.10400
H1584       H  0.00822353  0.90553940  0.32745368     0.16200
C1585       C  0.02683323  0.22841255  0.84761739    -0.02000
C1586       C  0.00991550  0.22859338  0.87532558     0.06600
C1587       C  0.01116023  0.21133399  0.90246459    -0.08000
C1588       C  0.02779639  0.19306130  0.90079693     0.04000
C1589       C  0.04335226  0.19177447  0.87118051    -0.15200
C1590       C  0.04315176  0.21004460  0.84560956    -0.08600
C1591       C  0.99022050  0.24593010  0.87473932     0.04900
C1592       C  0.97548523  0.24671858  0.84435525    -0.09700
C1593       C  0.95964918  0.26533341  0.83920212    -0.00100
C1594       C  0.95806075  0.28345236  0.86511125    -0.00200
C1595       C  0.97093226  0.28125240  0.89731291    -0.13200
C1596       C  0.98704575  0.26273883  0.90221909     0.00300
C1597       C  0.94574161  0.26584694  0.80660663     0.39600
C1598       C  0.00143766  0.26245682  0.93426513     0.36200
C1599       C  0.02754291  0.24669463  0.82045480     0.35900
C1600       C  0.02703695  0.17491790  0.92818509     0.36700
N1601       N  0.93456438  0.26632463  0.78054236    -0.44100
N1602       N  0.01301595  0.26212440  0.95991440    -0.44600
N1603       N  0.02622739  0.16051260  0.95031786    -0.41900
N1604       N  0.02812257  0.26135751  0.79870909    -0.43400
H1605       H  0.05517009  0.20941782  0.82303642     0.12800
H1606       H  0.99839216  0.21148466  0.92405711     0.09300
H1607       H  0.97725360  0.23336139  0.82368162     0.10400
H1608       H  0.96984679  0.29503660  0.91743701     0.16200
C1609       C  0.98604530  0.09256626  0.65846037    -0.02000
C1610       C  0.98954562  0.11077330  0.63299470     0.06600
C1611       C  0.01031146  0.12421390  0.63446374    -0.08000
C1612       C  0.02711958  0.12030036  0.66149541     0.04000
C1613       C  0.02332598  0.10245232  0.68755555    -0.15200
C1614       C  0.00300822  0.08838611  0.68511373    -0.08600
C1615       C  0.97072653  0.11774992  0.60724443     0.04900
C1616       C  0.96084154  0.14029275  0.61057435    -0.09700
C1617       C  0.94224264  0.14751547  0.58846626    -0.00100
C1618       C  0.93279954  0.13176691  0.56252701    -0.00200
C1619       C  0.94300582  0.10925627  0.55894618    -0.13200
C1620       C  0.96206244  0.10234811  0.58053419     0.00300
C1621       C  0.93322202  0.17112298  0.59355276     0.39600
C1622       C  0.97298041  0.07977279  0.57389595     0.36200
C1623       C  0.96452839  0.07896175  0.65921787     0.35900
C1624       C  0.04803693  0.13483145  0.66176161     0.36700
N1625       N  0.92628604  0.19015999  0.59741681    -0.44100
N1626       N  0.98177986  0.06172528  0.56837813    -0.44600
N1627       N  0.06473269  0.14657446  0.66155963    -0.41900
N1628       N  0.94727595  0.06807342  0.65964212    -0.43400
H1629       H  0.99974331  0.07491149  0.70532170     0.12800
H1630       H  0.01308340  0.13822793  0.61494017     0.09300
H1631       H  0.96756782  0.15225738  0.63092702     0.10400
H1632       H  0.93649127  0.09719897  0.53858468     0.16200
C1633       C  0.14162118  0.96009805  0.79271825    -0.02000
C1634       C  0.12854156  0.94411127  0.77136673     0.06600
C1635       C  0.10502280  0.94956301  0.76332355    -0.08000
C1636       C  0.09482772  0.97088002  0.77461011     0.04000
C1637       C  0.10810101  0.98732786  0.79494158    -0.15200
C1638       C  0.13133606  0.98135463  0.80445925    -0.08600
C1639       C  0.13903352  0.92224294  0.75529330     0.04900
C1640       C  0.13068378  0.89992385  0.76596652    -0.09700
C1641       C  0.13707008  0.87930605  0.74729956    -0.00100
C1642       C  0.15210905  0.88068525  0.71700168    -0.00200
C1643       C  0.16180976  0.90284296  0.70810216    -0.13200
C1644       C  0.15513676  0.92348862  0.72649509     0.00300
C1645       C  0.12756946  0.85699228  0.75948865     0.39600
C1646       C  0.16310344  0.94604678  0.71295355     0.36200
C1647       C  0.16560643  0.95510960  0.80293875     0.35900
C1648       C  0.07054813  0.97522878  0.76530304     0.36700
N1649       N  0.11995785  0.83917730  0.76954656    -0.44100
N1650       N  0.16918643  0.96421552  0.70199279    -0.44600
N1651       N  0.05108509  0.97864659  0.75777538    -0.41900
N1652       N  0.18484624  0.95126781  0.81131604    -0.43400
H1653       H  0.14174300  0.99363970  0.82024582     0.12800
H1654       H  0.09471517  0.93731835  0.74730502     0.09300
H1655       H  0.11840135  0.89871190  0.78814698     0.10400
H1656       H  0.17306468  0.90439303  0.68472896     0.16200
C1657       C  0.00536094  0.02474828  0.00482276    -0.02000
C1658       C  0.00774066  0.00016428  0.00959518     0.06600
C1659       C  0.02334559  0.98768669  0.98731558    -0.08000
C1660       C  0.03617551  0.99938413  0.96016773     0.04000
C1661       C  0.03335712  0.02397313  0.95507002    -0.15200
C1662       C  0.01815215  0.03633669  0.97804856    -0.08600
C1663       C  0.99394067  0.98740740  0.03765142     0.04900
C1664       C  0.97599108  0.97169007  0.02730363    -0.09700
C1665       C  0.96271504  0.95939124  0.05317693    -0.00100
C1666       C  0.96731368  0.96283882  0.09012742    -0.00200
C1667       C  0.98495481  0.97892042  0.10035121    -0.13200
C1668       C  0.99821036  0.99113262  0.07459373     0.00300
C1669       C  0.94572520  0.94208702  0.04120650     0.39600
C1670       C  0.01684305  0.00661009  0.08665548     0.36200
C1671       C  0.98921182  0.03841774  0.02619695     0.35900
C1672       C  0.05093257  0.98564061  0.93669497     0.36700
N1673       N  0.93220275  0.92810405  0.03168034    -0.44100
N1674       N  0.03179723  0.01903914  0.09615934    -0.44600
N1675       N  0.06269317  0.97463681  0.91774106    -0.41900
N1676       N  0.97631065  0.04944920  0.04327428    -0.43400
H1677       H  0.01580555  0.05523722  0.97452413     0.12800
H1678       H  0.02526688  0.96875525  0.99087320     0.09300
H1679       H  0.97260573  0.96876542  0.99895031     0.10400
H1680       H  0.98897645  0.98128315  0.12865352     0.16200
C1681       C  0.12423195  0.22328261  0.62298412    -0.02000
C1682       C  0.14097155  0.22053624  0.65052753     0.06600
C1683       C  0.16139607  0.23447533  0.65028100    -0.08000
C1684       C  0.16509706  0.25145571  0.62312962     0.04000
C1685       C  0.14810942  0.25446648  0.59545113    -0.15200
C1686       C  0.12793536  0.23990089  0.59590098    -0.08600
C1687       C  0.13652636  0.20361592  0.68015750     0.04900
C1688       C  0.14654139  0.18106959  0.67869564    -0.09700
C1689       C  0.13928330  0.16319180  0.70239884    -0.00100
C1690       C  0.12129324  0.16778155  0.72778404    -0.00200
C1691       C  0.11206188  0.19077033  0.72995445    -0.13200
C1692       C  0.11972875  0.20865830  0.70672336     0.00300
C1693       C  0.14986826  0.14016390  0.69856807     0.39600
C1694       C  0.10988310  0.23205408  0.71001064     0.36200
C1695       C  0.10287172  0.20936813  0.62216507     0.35900
C1696       C  0.18613441  0.26570018  0.62510861     0.36700
N1697       N  0.15867735  0.12189088  0.69513926    -0.44100
N1698       N  0.10223187  0.25091273  0.71249206    -0.44600
N1699       N  0.20307948  0.27699841  0.62709074    -0.41900
N1700       N  0.08568951  0.19836792  0.62164569    -0.43400
H1701       H  0.11478925  0.24128100  0.57486114     0.12800
H1702       H  0.17423830  0.23235697  0.67167495     0.09300
H1703       H  0.15938168  0.17718985  0.65804096     0.10400
H1704       H  0.09872674  0.19479001  0.74978442     0.16200
C1705       C  0.18234743  0.07560166  0.98148992    -0.02000
C1706       C  0.18383845  0.09447320  0.00625645     0.06600
C1707       C  0.16313801  0.10648222  0.01538211    -0.08000
C1708       C  0.14180065  0.10172180  0.99782073     0.04000
C1709       C  0.14083058  0.08465321  0.97008731    -0.15200
C1710       C  0.16093417  0.07077402  0.96389126    -0.08600
C1711       C  0.20680958  0.10456185  0.01878576     0.04900
C1712       C  0.21238963  0.12774867  0.00834021    -0.09700
C1713       C  0.23327055  0.13873191  0.01951981    -0.00100
C1714       C  0.24972644  0.12629517  0.04111595    -0.00200
C1715       C  0.24381237  0.10319825  0.05244434    -0.13200
C1716       C  0.22250127  0.09242129  0.04176347     0.00300
C1717       C  0.23650944  0.16326705  0.00991484     0.39600
C1718       C  0.21656426  0.06938677  0.05586202     0.36200
C1719       C  0.20278954  0.06211619  0.97139654     0.35900
C1720       C  0.12142571  0.11533266  0.00793217     0.36700
N1721       N  0.23860509  0.18300599  0.00230450    -0.44100
N1722       N  0.21151713  0.05100287  0.06722882    -0.44600
N1723       N  0.10514349  0.12629273  0.01608604    -0.41900
N1724       N  0.21893986  0.05100487  0.96309902    -0.43400
H1725       H  0.16053933  0.05740290  0.94306356     0.12800
H1726       H  0.16395388  0.12060093  0.03501907     0.09300
H1727       H  0.20011481  0.13750052  0.99154718     0.10400
H1728       H  0.25589284  0.09346850  0.06954436     0.16200
C1729       C  0.99393215  0.71125089  0.59675285    -0.02000
C1730       C  0.99455534  0.72977189  0.62207462     0.06600
C1731       C  0.97642952  0.73163050  0.64735316    -0.08000
C1732       C  0.95717033  0.71613134  0.64652592     0.04000
C1733       C  0.95608346  0.69810556  0.62035843    -0.15200
C1734       C  0.97481618  0.69560844  0.59614636    -0.08600
C1735       C  0.01293005  0.74843418  0.62068593     0.04900
C1736       C  0.01365637  0.76355091  0.59071645    -0.09700
C1737       C  0.03160661  0.78032317  0.58700090    -0.00100
C1738       C  0.04941863  0.78194173  0.61343388    -0.00200
C1739       C  0.04767059  0.76805064  0.64470130    -0.13200
C1740       C  0.02962295  0.75131949  0.64845607     0.00300
C1741       C  0.03142659  0.79567078  0.55585799     0.39600
C1742       C  0.02947221  0.73627521  0.67987051     0.36200
C1743       C  0.01231027  0.70843265  0.57039237     0.35900
C1744       C  0.93763706  0.72078412  0.67014156     0.36700
N1745       N  0.03120701  0.80811458  0.53109268    -0.44100
N1746       N  0.02935595  0.72418808  0.70503067    -0.44600
N1747       N  0.92190186  0.72471778  0.68882100    -0.41900
N1748       N  0.02697862  0.70619657  0.54918323    -0.43400
H1749       H  0.97394068  0.68208250  0.57556707     0.12800
H1750       H  0.97670232  0.74605863  0.66648864     0.09300
H1751       H  0.00037732  0.76191327  0.56985323     0.10400
H1752       H  0.06133046  0.76905853  0.66508075     0.16200
C1753       C  0.72871067  0.61676130  0.49127302    -0.02000
C1754       C  0.70992606  0.61062698  0.51417996     0.06600
C1755       C  0.71283187  0.61389058  0.55146567    -0.08000
C1756       C  0.73396222  0.62311212  0.56586106     0.04000
C1757       C  0.75296758  0.62882799  0.54281967    -0.15200
C1758       C  0.74986086  0.62535347  0.50559045    -0.08600
C1759       C  0.68706235  0.60174487  0.49897027     0.04900
C1760       C  0.68683123  0.58090901  0.47851092    -0.09700
C1761       C  0.66691550  0.57407258  0.45841345    -0.00100
C1762       C  0.64615800  0.58798985  0.45909255    -0.00200
C1763       C  0.64606979  0.60795946  0.48184922    -0.13200
C1764       C  0.66617757  0.61502776  0.50112640     0.00300
C1765       C  0.66944240  0.55378107  0.43543092     0.39600
C1766       C  0.66545515  0.63708777  0.52048458     0.36200
C1767       C  0.72630685  0.61567540  0.45263495     0.35900
C1768       C  0.73501899  0.62789720  0.60391595     0.36700
N1769       N  0.67248101  0.53748667  0.41733554    -0.44100
N1770       N  0.66484385  0.65486176  0.53576174    -0.44600
N1771       N  0.73570096  0.63198387  0.63437382    -0.41900
N1772       N  0.72434707  0.61504176  0.42167281    -0.43400
H1773       H  0.76398863  0.62970983  0.48719038     0.12800
H1774       H  0.69837785  0.60964112  0.56931228     0.09300
H1775       H  0.70282862  0.57056741  0.47668852     0.10400
H1776       H  0.63054209  0.61901575  0.48315371     0.16200
C1777       C  0.88573989  0.75470138  0.41667258    -0.02000
C1778       C  0.87193367  0.75329618  0.38528987     0.06600
C1779       C  0.85444990  0.73585225  0.38265108    -0.08000
C1780       C  0.85067238  0.71974545  0.41091845     0.04000
C1781       C  0.86441326  0.72124234  0.44268185    -0.15200
C1782       C  0.88191759  0.73884911  0.44486255    -0.08600
C1783       C  0.87633738  0.76972782  0.35494953     0.04900
C1784       C  0.89717201  0.76716550  0.33547453    -0.09700
C1785       C  0.90454327  0.78455663  0.31119058    -0.00100
C1786       C  0.89069603  0.80512185  0.30570656    -0.00200
C1787       C  0.86901751  0.80683985  0.32382917    -0.13200
C1788       C  0.86190030  0.78947019  0.34849955     0.00300
C1789       C  0.92661129  0.78069862  0.29305146     0.39600
C1790       C  0.84049818  0.79295689  0.36855727     0.36200
C1791       C  0.90375251  0.77258435  0.42071661     0.35900
C1792       C  0.83342044  0.70130919  0.40579975     0.36700
N1793       N  0.94437622  0.77737806  0.27886797    -0.44100
N1794       N  0.82340808  0.79573341  0.38479911    -0.44600
N1795       N  0.81967607  0.68645870  0.40151015    -0.41900
N1796       N  0.91813360  0.78695511  0.42376979    -0.43400
H1797       H  0.89262508  0.74048983  0.46891133     0.12800
H1798       H  0.84403420  0.73459504  0.35824489     0.09300
H1799       H  0.90825302  0.75190304  0.34049476     0.10400
H1800       H  0.85802598  0.82229169  0.32002326     0.16200
C1801       C  0.96298431  0.59575163  0.46029083    -0.02000
C1802       C  0.96979555  0.61000700  0.43088806     0.06600
C1803       C  0.95732934  0.63090626  0.42376602    -0.08000
C1804       C  0.93880425  0.63807227  0.44583526     0.04000
C1805       C  0.93217669  0.62402583  0.47565875    -0.15200
C1806       C  0.94416692  0.60271007  0.48215584    -0.08600
C1807       C  0.98936424  0.60332069  0.40641191     0.04900
C1808       C  0.98764306  0.58234382  0.38647326    -0.09700
C1809       C  0.00396668  0.57710599  0.35943589    -0.00100
C1810       C  0.02260075  0.59299397  0.35217770    -0.00200
C1811       C  0.02503893  0.61322731  0.37364642    -0.13200
C1812       C  0.00863626  0.61857211  0.40036381     0.00300
C1813       C  0.99986268  0.55644142  0.33763592     0.39600
C1814       C  0.01164107  0.64013047  0.42058796     0.36200
C1815       C  0.97570122  0.57449080  0.46941359     0.35900
C1816       C  0.92646695  0.65957012  0.43656490     0.36700
N1817       N  0.99624421  0.53988675  0.32026798    -0.44100
N1818       N  0.01396349  0.65747704  0.43663540    -0.44600
N1819       N  0.91657339  0.67677605  0.42913031    -0.41900
N1820       N  0.98602275  0.55751544  0.47667978    -0.43400
H1821       H  0.93934317  0.59185232  0.50507215     0.12800
H1822       H  0.96208244  0.64166621  0.40070124     0.09300
H1823       H  0.97276638  0.57064147  0.39072575     0.10400
H1824       H  0.03947180  0.62530470  0.36873689     0.16200
C1825       C  0.85172145  0.55461864  0.72249168    -0.02000
C1826       C  0.86657160  0.55535958  0.75296599     0.06600
C1827       C  0.87314031  0.57742622  0.76705032    -0.08000
C1828       C  0.86618258  0.59852569  0.75012178     0.04000
C1829       C  0.85239469  0.59774168  0.71845631    -0.15200
C1830       C  0.84449240  0.57568503  0.70594195    -0.08600
C1831       C  0.87719142  0.53345414  0.76829934     0.04900
C1832       C  0.90126860  0.52939025  0.76309331    -0.09700
C1833       C  0.91187140  0.50834593  0.77483306    -0.00100
C1834       C  0.89828074  0.49081004  0.79242197    -0.00200
C1835       C  0.87436372  0.49540973  0.79896940    -0.13200
C1836       C  0.86375716  0.51639443  0.78688052     0.00300
C1837       C  0.93683374  0.50560756  0.76925928     0.39600
C1838       C  0.83904364  0.51998908  0.79360976     0.36200
C1839       C  0.84545970  0.53252264  0.70561736     0.35900
C1840       C  0.87370357  0.62075952  0.76531253     0.36700
N1841       N  0.95687580  0.50376170  0.76476500    -0.44100
N1842       N  0.81921196  0.52283862  0.79892052    -0.44600
N1843       N  0.87957861  0.63863856  0.77746759    -0.41900
N1844       N  0.84049292  0.51493237  0.69169642    -0.43400
H1845       H  0.83431776  0.57474915  0.68124941     0.12800
H1846       H  0.88440977  0.57813057  0.79061181     0.09300
H1847       H  0.91175037  0.54258904  0.74920628     0.10400
H1848       H  0.86371422  0.48223240  0.81258209     0.16200
C1849       C  0.53920232  0.72192854  0.92611252    -0.02000
C1850       C  0.51689798  0.73022295  0.91503553     0.06600
C1851       C  0.51468204  0.75403556  0.90427731    -0.08000
C1852       C  0.53393797  0.76962643  0.90588888     0.04000
C1853       C  0.55566873  0.76155945  0.91947355    -0.15200
C1854       C  0.55815347  0.73760320  0.92853532    -0.08600
C1855       C  0.49537614  0.71514592  0.91806556     0.04900
C1856       C  0.49008551  0.70476489  0.95147402    -0.09700
C1857       C  0.46901219  0.69244851  0.95689926    -0.00100
C1858       C  0.45227550  0.69086858  0.92878965    -0.00200
C1859       C  0.45810907  0.70006969  0.89479560    -0.13200
C1860       C  0.47939666  0.71212345  0.88925345     0.00300
C1861       C  0.46517177  0.68134670  0.99145626     0.39600
C1862       C  0.48428037  0.72142053  0.85386327     0.36200
C1863       C  0.54316533  0.69750972  0.93575312     0.35900
C1864       C  0.53064039  0.79396551  0.89529041     0.36700
N1865       N  0.46204476  0.67230812  0.01899910    -0.44100
N1866       N  0.48808557  0.72892383  0.82548534    -0.44600
N1867       N  0.52801518  0.81343990  0.88655687    -0.41900
N1868       N  0.54658857  0.67802557  0.94372792    -0.43400
H1869       H  0.57499556  0.73116835  0.93824621     0.12800
H1870       H  0.49764693  0.76072014  0.89595736     0.09300
H1871       H  0.50221914  0.70681000  0.97381798     0.10400
H1872       H  0.44561925  0.69867315  0.87279142     0.16200
C1873       C  0.65853362  0.71806208  0.12863108    -0.02000
C1874       C  0.63885323  0.71935748  0.15145848     0.06600
C1875       C  0.62446012  0.73940492  0.15038230    -0.08000
C1876       C  0.62828119  0.75723885  0.12493876     0.04000
C1877       C  0.64693868  0.75520369  0.10018703    -0.15200
C1878       C  0.66250872  0.73600902  0.10322479    -0.08600
C1879       C  0.63186809  0.69937410  0.17492814     0.04900
C1880       C  0.63307729  0.70208344  0.21236205    -0.09700
C1881       C  0.62509929  0.68412355  0.23526695    -0.00100
C1882       C  0.61543367  0.66333071  0.22059093    -0.00200
C1883       C  0.61441254  0.66046017  0.18327771    -0.13200
C1884       C  0.62260613  0.67826857  0.16033950     0.00300
C1885       C  0.62664807  0.68743127  0.27369088     0.39600
C1886       C  0.62087383  0.67468144  0.12199404     0.36200
C1887       C  0.67427696  0.69807711  0.13029696     0.35900
C1888       C  0.61264300  0.77732298  0.12449318     0.36700
N1889       N  0.62783827  0.68994579  0.30451126    -0.44100
N1890       N  0.61958678  0.67167776  0.09128619    -0.44600
N1891       N  0.60012058  0.79342372  0.12431692    -0.41900
N1892       N  0.68661299  0.68186443  0.13206327    -0.43400
H1893       H  0.67695093  0.73433570  0.08443774     0.12800
H1894       H  0.60959329  0.74062621  0.16847990     0.09300
H1895       H  0.64012425  0.71829254  0.22361442     0.10400
H1896       H  0.60716025  0.64431107  0.17210269     0.16200
C1897       C  0.81420226  0.88654225  0.06931606    -0.02000
C1898       C  0.81645397  0.87428921  0.03648105     0.06600
C1899       C  0.83909374  0.86989703  0.02313580    -0.08000
C1900       C  0.85923964  0.87626070  0.04296216     0.04000
C1901       C  0.85697313  0.88728051  0.07688706    -0.15200
C1902       C  0.83433841  0.89304272  0.08905418    -0.08600
C1903       C  0.79555714  0.86347864  0.01822224     0.04900
C1904       C  0.78086922  0.87724391  0.99609182    -0.09700
C1905       C  0.76004761  0.86776382  0.98114667    -0.00100
C1906       C  0.75358192  0.84399721  0.98832627    -0.00200
C1907       C  0.76871256  0.83023453  0.00988372    -0.13200
C1908       C  0.78944878  0.83966847  0.02459059     0.00300
C1909       C  0.74490943  0.88335026  0.96085881     0.39600
C1910       C  0.80384125  0.82477585  0.04728668     0.36200
C1911       C  0.79135440  0.89133737  0.08436143     0.35900
C1912       C  0.88210254  0.87098491  0.02825062     0.36700
N1913       N  0.73287155  0.89609115  0.94483882    -0.44100
N1914       N  0.81541100  0.81288312  0.06548334    -0.44600
N1915       N  0.90048714  0.86685595  0.01661382    -0.41900
N1916       N  0.77305294  0.89517877  0.09650308    -0.43400
H1917       H  0.83229075  0.90127780  0.11514740     0.12800
H1918       H  0.84101241  0.86064037  0.99783279     0.09300
H1919       H  0.78534717  0.89562829  0.99131879     0.10400
H1920       H  0.76406067  0.81204885  0.01593641     0.16200
C1921       C  0.74991043  0.71345732  0.73284881    -0.02000
C1922       C  0.76116995  0.72663163  0.76019990     0.06600
C1923       C  0.78577543  0.72649498  0.76220933    -0.08000
C1924       C  0.79921674  0.71443270  0.73671059     0.04000
C1925       C  0.78808019  0.70219018  0.70819114    -0.15200
C1926       C  0.76338734  0.70140906  0.70705968    -0.08600
C1927       C  0.74783627  0.73987233  0.78808176     0.04900
C1928       C  0.74849307  0.73164259  0.82362075    -0.09700
C1929       C  0.73635127  0.74338260  0.85095213    -0.00100
C1930       C  0.72334329  0.76413676  0.84307061    -0.00200
C1931       C  0.72341670  0.77286575  0.80767578    -0.13200
C1932       C  0.73544025  0.76089754  0.78024649     0.00300
C1933       C  0.73787153  0.73373825  0.88689163     0.39600
C1934       C  0.73488966  0.77057278  0.74432624     0.36200
C1935       C  0.72460107  0.71186750  0.73104071     0.35900
C1936       C  0.82448923  0.71447375  0.74087506     0.36700
N1937       N  0.73944555  0.72567992  0.91543685    -0.44100
N1938       N  0.73440473  0.77840169  0.71555300    -0.44600
N1939       N  0.84471565  0.71439139  0.74445099    -0.41900
N1940       N  0.70430354  0.71053434  0.72973183    -0.43400
H1941       H  0.75463323  0.69204597  0.68540205     0.12800
H1942       H  0.79452988  0.73601724  0.78372412     0.09300
H1943       H  0.75836494  0.71576221  0.82994884     0.10400
H1944       H  0.71334070  0.78856918  0.80114235     0.16200
C1945       C  0.47193034  0.74264279  0.34318944    -0.02000
C1946       C  0.49018755  0.74182591  0.36900224     0.06600
C1947       C  0.49117372  0.75923642  0.39580180    -0.08000
C1948       C  0.47538184  0.77824405  0.39553611     0.04000
C1949       C  0.45830610  0.77994593  0.36800478    -0.15200
C1950       C  0.45626075  0.76163151  0.34286255    -0.08600
C1951       C  0.50933527  0.72404513  0.36663315     0.04900
C1952       C  0.52320819  0.72344689  0.33548122    -0.09700
C1953       C  0.53997731  0.70569482  0.33052988    -0.00100
C1954       C  0.54334860  0.68827149  0.35736898    -0.00200
C1955       C  0.53075083  0.68998822  0.38969739    -0.13200
C1956       C  0.51364433  0.70752180  0.39433135     0.00300
C1957       C  0.55311694  0.70535739  0.29732954     0.39600
C1958       C  0.49940651  0.70700587  0.42637718     0.36200
C1959       C  0.46936831  0.72466488  0.31596348     0.35900
C1960       C  0.47858845  0.79690046  0.42151745     0.36700
N1961       N  0.56367400  0.70489359  0.27078868    -0.44100
N1962       N  0.48785155  0.70655550  0.45192009    -0.44600
N1963       N  0.48118465  0.81191601  0.44222212    -0.41900
N1964       N  0.46722740  0.71036585  0.29400664    -0.43400
H1965       H  0.44316109  0.76285947  0.32164841     0.12800
H1966       H  0.50513324  0.75868976  0.41573396     0.09300
H1967       H  0.52038254  0.73648601  0.31445928     0.10400
H1968       H  0.53292455  0.67651648  0.41025515     0.16200
C1969       C  0.37556766  0.07344083  0.25685379    -0.02000
C1970       C  0.36536124  0.05132651  0.24879711     0.06600
C1971       C  0.34737034  0.05037482  0.22293775    -0.08000
C1972       C  0.34072826  0.07059143  0.20324460     0.04000
C1973       C  0.35221446  0.09253636  0.20930103    -0.15200
C1974       C  0.36905839  0.09367456  0.23716517    -0.08600
C1975       C  0.37496917  0.02871256  0.26382493     0.04900
C1976       C  0.36170277  0.01523649  0.28827670    -0.09700
C1977       C  0.36980385  0.99315371  0.30089602    -0.00100
C1978       C  0.39176279  0.98421590  0.28923735    -0.00200
C1979       C  0.40489241  0.99784943  0.26471428    -0.13200
C1980       C  0.39672067  0.01970379  0.25196441     0.00300
C1981       C  0.35439836  0.97936523  0.32352731     0.39600
C1982       C  0.41063765  0.03215315  0.22556110     0.36200
C1983       C  0.39327548  0.07562152  0.28455320     0.35900
C1984       C  0.32355042  0.06754438  0.17498985     0.36700
N1985       N  0.34179692  0.96829173  0.34125699    -0.44100
N1986       N  0.42183365  0.04201449  0.20433017    -0.44600
N1987       N  0.30981131  0.06465736  0.15239629    -0.41900
N1988       N  0.40741820  0.07737249  0.30684356    -0.43400
H1989       H  0.37791899  0.11028025  0.24264670     0.12800
H1990       H  0.33938858  0.03344220  0.21665944     0.09300
H1991       H  0.34472911  0.02176628  0.29692729     0.10400
H1992       H  0.42163620  0.99130336  0.25508042     0.16200
C1993       C  0.56291783  0.87221699  0.11443955    -0.02000
C1994       C  0.54004050  0.86243764  0.11398881     0.06600
C1995       C  0.53349083  0.84744309  0.08568415    -0.08000
C1996       C  0.54962747  0.84121595  0.05900963     0.04000
C1997       C  0.57284011  0.85017918  0.06028196    -0.15200
C1998       C  0.57903232  0.86614714  0.08757491    -0.08600
C1999       C  0.52272257  0.86710616  0.14297306     0.04900
C2000       C  0.50125190  0.87800336  0.13417827    -0.09700
C2001       C  0.48396040  0.88161494  0.16039323    -0.00100
C2002       C  0.48803664  0.87410222  0.19607760    -0.00200
C2003       C  0.50947657  0.86320310  0.20479389    -0.13200
C2004       C  0.52671134  0.85958371  0.17871335     0.00300
C2005       C  0.46177830  0.89189525  0.14969917     0.39600
C2006       C  0.54789715  0.84726941  0.18916997     0.36200
C2007       C  0.57036342  0.88817443  0.14250616     0.35900
C2008       C  0.54179644  0.82597229  0.03023957     0.36700
N2009       N  0.44392342  0.90006462  0.14135096    -0.44100
N2010       N  0.56484856  0.83748604  0.19788807    -0.44600
N2011       N  0.53553517  0.81384501  0.00708467    -0.41900
N2012       N  0.57635076  0.90071867  0.16530465    -0.43400
H2013       H  0.59676846  0.87321532  0.08868888     0.12800
H2014       H  0.51582657  0.84017146  0.08487100     0.09300
H2015       H  0.49790830  0.88344066  0.10664319     0.10400
H2016       H  0.51270231  0.85726396  0.23214064     0.16200
C2017       C  0.35376742  0.77697904  0.20380707    -0.02000
C2018       C  0.36850612  0.76671672  0.17791760     0.06600
C2019       C  0.39139829  0.77544807  0.17345096    -0.08000
C2020       C  0.39992589  0.79396544  0.19470709     0.04000
C2021       C  0.38534722  0.80402053  0.22144091    -0.15200
C2022       C  0.36224476  0.79540188  0.22534246    -0.08600
C2023       C  0.36042739  0.74727284  0.15425715     0.04900
C2024       C  0.34431758  0.75229119  0.12667943    -0.09700
C2025       C  0.33927173  0.73546984  0.10020056    -0.00100
C2026       C  0.35081284  0.71338938  0.10081840    -0.00200
C2027       C  0.36571275  0.70782770  0.12975907    -0.13200
C2028       C  0.37033615  0.72449496  0.15668801     0.00300
C2029       C  0.32356557  0.74191206  0.07119649     0.39600
C2030       C  0.38538990  0.71803974  0.18647179     0.36200
C2031       C  0.33009158  0.76850822  0.20924677     0.35900
C2032       C  0.42337091  0.80262331  0.18741219     0.36700
N2033       N  0.31097477  0.74700728  0.04793066    -0.44100
N2034       N  0.39724173  0.71292501  0.21062087    -0.44600
N2035       N  0.44213768  0.80941659  0.18114373    -0.41900
N2036       N  0.31110408  0.76169186  0.21354366    -0.43400
H2037       H  0.35084846  0.80275929  0.24575249     0.12800
H2038       H  0.40258378  0.76785002  0.15294736     0.09300
H2039       H  0.33653068  0.76974716  0.12491618     0.10400
H2040       H  0.37413534  0.69067439  0.13084318     0.16200
C2041       C  0.28236250  0.87660659  0.54173974    -0.02000
C2042       C  0.29742481  0.86318621  0.51981929     0.06600
C2043       C  0.29192443  0.83946453  0.51313956    -0.08000
C2044       C  0.27129913  0.82923863  0.52658912     0.04000
C2045       C  0.25557468  0.84283943  0.54758267    -0.15200
C2046       C  0.26169429  0.86638378  0.55557532    -0.08600
C2047       C  0.31898371  0.87326824  0.50304535     0.04900
C2048       C  0.34100256  0.86504298  0.51455166    -0.09700
C2049       C  0.36156490  0.87114400  0.49599520    -0.00100
C2050       C  0.36030372  0.88552924  0.46485077    -0.00200
C2051       C  0.33839004  0.89506094  0.45484621    -0.13200
C2052       C  0.31781741  0.88900585  0.47356093     0.00300
C2053       C  0.38369038  0.86205338  0.50916773     0.39600
C2054       C  0.29556358  0.89796564  0.46065713     0.36200
C2055       C  0.28782952  0.90088342  0.55014959     0.35900
C2056       C  0.26700908  0.80465979  0.51843119     0.36700
N2057       N  0.40138886  0.85481673  0.51995417    -0.44100
N2058       N  0.27773919  0.90524275  0.45042581    -0.44600
N2059       N  0.26396849  0.78495701  0.51153353    -0.41900
N2060       N  0.29240596  0.92034515  0.55667874    -0.43400
H2061       H  0.24991661  0.87709514  0.57155191     0.12800
H2062       H  0.30365456  0.82897912  0.49669613     0.09300
H2063       H  0.34201928  0.85317889  0.53747572     0.10400
H2064       H  0.33703097  0.90590403  0.43082248     0.16200
C2065       C  0.53128112  0.22509061  0.67475582    -0.02000
C2066       C  0.51201626  0.22445895  0.65078774     0.06600
C2067       C  0.50732911  0.20384604  0.63129532    -0.08000
C2068       C  0.52107344  0.18361496  0.63635515     0.04000
C2069       C  0.53964005  0.18383760  0.66166704    -0.15200
C2070       C  0.54481380  0.20473450  0.68030490    -0.08600
C2071       C  0.49493674  0.24411469  0.64943802     0.04900
C2072       C  0.50029564  0.26464161  0.62989184    -0.09700
C2073       C  0.48595065  0.28468076  0.63242963    -0.00100
C2074       C  0.46625724  0.28434608  0.65545399    -0.00200
C2075       C  0.46028209  0.26337992  0.67344520    -0.13200
C2076       C  0.47431668  0.24323971  0.67031076     0.00300
C2077       C  0.49262035  0.30578972  0.61302996     0.39600
C2078       C  0.46795246  0.22218743  0.69012048     0.36200
C2079       C  0.53662062  0.24612086  0.69516035     0.35900
C2080       C  0.51475526  0.16240987  0.61707413     0.36700
N2081       N  0.49792349  0.32266887  0.59734924    -0.44100
N2082       N  0.46298918  0.20519961  0.70579217    -0.44600
N2083       N  0.50958159  0.14548299  0.60153578    -0.41900
N2084       N  0.54070059  0.26310704  0.71129976    -0.43400
H2085       H  0.55905132  0.20495863  0.69979321     0.12800
H2086       H  0.49234405  0.20331251  0.61318253     0.09300
H2087       H  0.51612278  0.26525450  0.61372211     0.10400
H2088       H  0.44502367  0.26299458  0.69082644     0.16200
C2089       C  0.46018015  0.13155340  0.92463405    -0.02000
C2090       C  0.46940957  0.10840289  0.92594980     0.06600
C2091       C  0.46041775  0.09250467  0.95159940    -0.08000
C2092       C  0.44222357  0.09916130  0.97504334     0.04000
C2093       C  0.43219736  0.12204039  0.97251103    -0.15200
C2094       C  0.44174785  0.13805099  0.94744303    -0.08600
C2095       C  0.48819933  0.10071348  0.90038910     0.04900
C2096       C  0.50974121  0.11291404  0.89982959    -0.09700
C2097       C  0.52638884  0.10877211  0.87280950    -0.00100
C2098       C  0.52194688  0.09172761  0.84594470    -0.00200
C2099       C  0.50116661  0.07828633  0.84800173    -0.13200
C2100       C  0.48426512  0.08276045  0.87468115     0.00300
C2101       C  0.54798169  0.12217741  0.87344919     0.39600
C2102       C  0.46234631  0.06984889  0.87359711     0.36200
C2103       C  0.46911684  0.14897582  0.89969022     0.35900
C2104       C  0.43513824  0.08256650  0.00254421     0.36700
N2105       N  0.56532439  0.13287752  0.87451130    -0.44100
N2106       N  0.44473088  0.05957355  0.87274887    -0.44600
N2107       N  0.42967261  0.06930605  0.02477269    -0.41900
N2108       N  0.47650326  0.16296251  0.87993605    -0.43400
H2109       H  0.43466038  0.15578815  0.94533394     0.12800
H2110       H  0.46784848  0.07490713  0.95358421     0.09300
H2111       H  0.51320772  0.12634935  0.91991557     0.10400
H2112       H  0.49749838  0.06519384  0.82748133     0.16200
C2113       C  0.63524421  0.95003461  0.73706239    -0.02000
C2114       C  0.62264413  0.93616865  0.76194046     0.06600
C2115       C  0.59972114  0.94274595  0.77113365    -0.08000
C2116       C  0.58966841  0.96349999  0.75748605     0.04000
C2117       C  0.60272209  0.97835151  0.73412171    -0.15200
C2118       C  0.62524069  0.97091296  0.72322593    -0.08600
C2119       C  0.63306419  0.91507931  0.77983068     0.04900
C2120       C  0.64929044  0.91828800  0.80794766    -0.09700
C2121       C  0.65659472  0.89914580  0.82938611    -0.00100
C2122       C  0.64757619  0.87622747  0.82268697    -0.00200
C2123       C  0.63239637  0.87298184  0.79308497    -0.13200
C2124       C  0.62513761  0.89210986  0.77179989     0.00300
C2125       C  0.67167374  0.90393259  0.85983886     0.39600
C2126       C  0.60907195  0.88791077  0.74234493     0.36200
C2127       C  0.65843998  0.94304948  0.72566603     0.35900
C2128       C  0.56583221  0.96887183  0.76787824     0.36700
N2129       N  0.68370313  0.90773470  0.88432391    -0.44100
N2130       N  0.59626183  0.88462810  0.71862545    -0.44600
N2131       N  0.54669427  0.97280197  0.77644731    -0.41900
N2132       N  0.67696863  0.93708133  0.71672735    -0.43400
H2133       H  0.63544865  0.98188923  0.70509209     0.12800
H2134       H  0.58979999  0.93180650  0.78972025     0.09300
H2135       H  0.65531884  0.93599736  0.81431051     0.10400
H2136       H  0.62540704  0.85552828  0.78739302     0.16200
C2137       C  0.49502798  0.00072789  0.55484800    -0.02000
C2138       C  0.50737277  0.98803589  0.52868432     0.06600
C2139       C  0.53206046  0.98699752  0.53074535    -0.08000
C2140       C  0.54451449  0.99907276  0.55792982     0.04000
C2141       C  0.53213412  0.01294515  0.58326915    -0.15200
C2142       C  0.50728866  0.01303628  0.58139812    -0.08600
C2143       C  0.49438155  0.97457291  0.50064848     0.04900
C2144       C  0.48204764  0.98678117  0.47346296    -0.09700
C2145       C  0.46861377  0.97447630  0.44777497    -0.00100
C2146       C  0.46731575  0.94961771  0.44936634    -0.00200
C2147       C  0.47931631  0.93757100  0.47696366    -0.13200
C2148       C  0.49271478  0.94977842  0.50245853     0.00300
C2149       C  0.45745878  0.98745500  0.41892694     0.39600
C2150       C  0.50446334  0.93652040  0.53045489     0.36200
C2151       C  0.46962705  0.00059706  0.55587264     0.35900
C2152       C  0.56974658  0.99650609  0.55920745     0.36700
N2153       N  0.44851380  0.99763824  0.39557593    -0.44100
N2154       N  0.51391721  0.92595644  0.55291948    -0.44600
N2155       N  0.58994771  0.99409206  0.56018479    -0.41900
N2156       N  0.44928997  0.00027470  0.55685540    -0.43400
H2157       H  0.49706272  0.02274503  0.60094361     0.12800
H2158       H  0.54158291  0.97657156  0.51120339     0.09300
H2159       H  0.48313027  0.00590563  0.47216096     0.10400
H2160       H  0.47858913  0.91841327  0.47813055     0.16200
C2161       C  0.62756801  0.24200198  0.87744019    -0.02000
C2162       C  0.63993855  0.22038970  0.87581846     0.06600
C2163       C  0.65828650  0.21638520  0.90044911    -0.08000
C2164       C  0.66320929  0.23263677  0.92802424     0.04000
C2165       C  0.64952365  0.25336270  0.93143087    -0.15200
C2166       C  0.63212724  0.25799049  0.90539991    -0.08600
C2167       C  0.63247346  0.20087150  0.85120793     0.04900
C2168       C  0.64815357  0.19199580  0.82547002    -0.09700
C2169       C  0.64149862  0.17352932  0.80222789    -0.00100
C2170       C  0.61871721  0.16343571  0.80465305    -0.00200
C2171       C  0.60322267  0.17231836  0.83073087    -0.13200
C2172       C  0.60994086  0.19052636  0.85405417     0.00300
C2173       C  0.65802385  0.16615945  0.77513809     0.39600
C2174       C  0.59353520  0.19805682  0.88127760     0.36200
C2175       C  0.60983679  0.24796852  0.85102854     0.35900
C2176       C  0.68108466  0.22660115  0.95408588     0.36700
N2177       N  0.67127362  0.16035319  0.75335177    -0.44100
N2178       N  0.58057222  0.20442628  0.90310259    -0.44600
N2179       N  0.69540370  0.22154508  0.97489870    -0.41900
N2180       N  0.59562170  0.25272763  0.82987744    -0.43400
H2181       H  0.62172828  0.27398646  0.90732643     0.12800
H2182       H  0.66799777  0.19992565  0.89927551     0.09300
H2183       H  0.66553736  0.19976936  0.82318471     0.10400
H2184       H  0.58570424  0.16494735  0.83307884     0.16200
C2185       C  0.71227035  0.13067333  0.51774370    -0.02000
C2186       C  0.70838610  0.10600383  0.51598973     0.06600
C2187       C  0.72548609  0.09180573  0.49948918    -0.08000
C2188       C  0.74629712  0.10176442  0.48551054     0.04000
C2189       C  0.75043261  0.12637408  0.48832715    -0.15200
C2190       C  0.73315893  0.14050920  0.50440042    -0.08600
C2191       C  0.68678640  0.09511213  0.53212636     0.04900
C2192       C  0.66462977  0.10222171  0.51938850    -0.09700
C2193       C  0.64402606  0.09669597  0.53831956    -0.00100
C2194       C  0.64516445  0.08290617  0.57014352    -0.00200
C2195       C  0.66710965  0.07383847  0.58086998    -0.13200
C2196       C  0.68784362  0.08008698  0.56255238     0.00300
C2197       C  0.62215148  0.10646890  0.52528767     0.39600
C2198       C  0.71008128  0.07253386  0.57741236     0.36200
C2199       C  0.69533379  0.14626262  0.53410574     0.35900
C2200       C  0.76364696  0.08618925  0.47023870     0.36700
N2201       N  0.60483982  0.11464173  0.51458189    -0.44100
N2202       N  0.72784753  0.06648602  0.58957092    -0.44600
N2203       N  0.77753869  0.07365189  0.45805496    -0.41900
N2204       N  0.68161496  0.15868878  0.54698432    -0.43400
H2205       H  0.73611817  0.15938646  0.50688890     0.12800
H2206       H  0.72268289  0.07287102  0.49789765     0.09300
H2207       H  0.66358187  0.11344284  0.49572758     0.10400
H2208       H  0.66834693  0.06345497  0.60537192     0.16200
loop_ 
_geom_bond_atom_site_label_1 
_geom_bond_atom_site_label_2 
_geom_bond_distance 
_geom_bond_site_symmetry_2 
_ccdc_geom_bond_type 
Zr1           O2   2.443       .  S
Zr1           O3   2.475       .  S
Zr1           O4   2.465       .  S
Zr1           O7   2.474       .  S
Zr1           O9   2.392       .  S
Zr1          O10   2.389       .  S
Zr1          O11   2.424       .  S
Zr1          O12   2.404       .  S
O2           H58   0.990       .  S
O2           H66   0.991       .  S
O3           C23   1.290       .  A
O4           C25   1.289       .  A
O5          Zr15   2.424       .  S
O5           C24   1.283       .  A
O6          Zr14   2.424       .  S
O6           C25   1.283       .  A
O7           C24   1.292       .  A
O8          Zr16   2.392       .  S
O8           C23   1.277       .  A
O9          Zr14   2.401       .  S
O9          Zr16   2.380       .  S
O10         Zr15   2.389       .  S
O10         Zr16   2.384       .  S
O10          H45   0.965       .  S
O11         Zr14   2.409       .  S
O11         Zr31   2.406       .  S
O11          H48   0.966       .  S
O12         Zr15   2.389       .  S
O12         Zr31   2.396       .  S
Zr13         O38   2.442       .  S
Zr13         O32   2.431       .  S
Zr13         O40   2.440       .  S
Zr13         O28   2.446       .  S
Zr13         O19   2.402       .  S
Zr13         O20   2.405       .  S
Zr13         O21   2.374       .  S
Zr13         O22   2.383       .  S
Zr14         O33   2.435       .  S
Zr14         O26   2.433       .  S
Zr14         O27   2.452       .  S
Zr14         O20   2.392       .  S
Zr14         O21   2.394       .  S
Zr15         O17   2.435       .  S
Zr15         O39   2.440       .  S
Zr15         O41   2.422       .  S
Zr15         O19   2.391       .  S
Zr15         O22   2.400       .  S
Zr16         O42   2.436       .  S
Zr16         O43   2.437       .  S
Zr16         O18   2.437       .  S
Zr16         O19   2.383       .  S
Zr16         O20   2.386       .  S
O17          H54   0.990       .  S
O18          H49   0.990       .  S
O18          H63   0.990       .  S
O20          H46   0.965       .  S
O21         Zr31   2.376       .  S
O22         Zr31   2.380       .  S
O22          H47   0.966       .  S
C23        C2141   1.501       .  S
C24        C2194   1.492       .  S
C25        C2117   1.492   1_545  S
O26          H62   0.990       .  S
O27          C29   1.288       .  A
O28          C29   1.286       .  A
C29        C2098   1.489       .  S
O30         Zr31   2.439       .  S
O30          H59   0.990       .  S
Zr31         O34   2.438       .  S
Zr31         O35   2.438       .  S
Zr31         O36   2.441       .  S
O32          C37   1.283       .  A
O33          H50   0.990       .  S
O33          H65   0.990       .  S
O34          H51   0.990       .  S
O35          H55   0.990       .  S
O35          H64   0.990       .  S
O36          C37   1.285       .  A
C37        C2170   1.496       .  S
O38          H57   0.991       .  S
O38          H61   0.990       .  S
O39          H53   0.990       .  S
O39          H60   0.990       .  S
O40          C44   1.284       .  A
O41          C44   1.282       .  A
O42          H52   0.990       .  S
O43          H56   0.990       .  S
C44        C2069   1.472       .  S
Zr67         O68   2.441       .  S
Zr67         O69   2.474       .  S
Zr67         O70   2.471       .  S
Zr67         O73   2.466       .  S
Zr67         O75   2.386       .  S
Zr67         O76   2.393       .  S
Zr67         O77   2.426       .  S
Zr67         O78   2.417       .  S
O68         H124   0.990       .  S
O68         H132   0.990       .  S
O69          C89   1.289       .  A
O70          C91   1.290       .  A
O71         Zr81   2.427       .  S
O71          C90   1.284       .  A
O72         Zr80   2.422       .  S
O72          C91   1.282       .  A
O73          C90   1.290       .  A
O74         Zr82   2.380       .  S
O74          C89   1.273       .  A
O75         Zr80   2.400       .  S
O75         Zr82   2.390       .  S
O76         Zr81   2.404       .  S
O76         Zr82   2.383       .  S
O76         H111   0.966       .  S
O77         Zr80   2.405       .  S
O77         Zr97   2.388       .  S
O77         H114   0.963       .  S
O78         Zr81   2.391       .  S
O78         Zr97   2.402       .  S
Zr79        O104   2.443       .  S
Zr79         O98   2.420       .  S
Zr79        O106   2.426       .  S
Zr79         O94   2.419       .  S
Zr79         O85   2.392       .  S
Zr79         O86   2.401       .  S
Zr79         O87   2.376       .  S
Zr79         O88   2.382       .  S
Zr80         O99   2.437       .  S
Zr80         O92   2.434       .  S
Zr80         O93   2.441       .  S
Zr80         O86   2.396       .  S
Zr80         O87   2.392       .  S
Zr81         O83   2.436       .  S
Zr81        O105   2.437       .  S
Zr81        O107   2.433       .  S
Zr81         O85   2.389       .  S
Zr81         O88   2.390       .  S
Zr82        O108   2.436       .  S
Zr82        O109   2.439       .  S
Zr82         O84   2.441       .  S
Zr82         O85   2.374       .  S
Zr82         O86   2.376       .  S
O83         H120   0.990       .  S
O84         H115   0.990       .  S
O84         H129   0.990       .  S
O86         H112   0.964       .  S
O87         Zr97   2.383       .  S
O88         Zr97   2.374       .  S
O88         H113   0.966       .  S
C89        C2146   1.477       .  S
C90        C1978   1.499       .  S
C91        C2050   1.487       .  S
O92         H128   0.990       .  S
O93          C95   1.285       .  A
O94          C95   1.282       .  A
C95        C1949   1.473       .  S
O96         Zr97   2.440       .  S
O96         H125   0.990       .  S
Zr97        O100   2.437       .  S
Zr97        O101   2.438       .  S
Zr97        O102   2.427       .  S
O98         C103   1.280       .  A
O99         H116   0.990       .  S
O99         H131   0.990       .  S
O100        H117   0.990       .  S
O101        H121   0.990       .  S
O101        H130   0.990       .  S
O102        C103   1.283       .  A
C103       C2021   1.486       .  S
O104        H123   0.991       .  S
O104        H127   0.990       .  S
O105        H119   0.990       .  S
O105        H126   0.990       .  S
O106        C110   1.282       .  A
O107        C110   1.284       .  A
O108        H118   0.990       .  S
O109        H122   0.990       .  S
C110       C2002   1.477       .  S
Zr133       O134   2.442       .  S
Zr133       O135   2.483       .  S
Zr133       O136   2.490       .  S
Zr133       O139   2.469       .  S
Zr133       O141   2.383       .  S
Zr133       O142   2.397       .  S
Zr133       O143   2.422       .  S
Zr133       O144   2.414       .  S
O134        H190   0.990       .  S
O134        H198   0.990       .  S
O135        C155   1.292       .  A
O136        C157   1.293       .  A
O137       Zr147   2.416       .  S
O137        C156   1.282       .  A
O138       Zr146   2.421       .  S
O138        C157   1.283   1_554  A
O139        C156   1.292       .  A
O140       Zr148   2.390       .  S
O140        C155   1.275       .  A
O141       Zr146   2.396   1_556  S
O141       Zr148   2.383       .  S
O142       Zr147   2.401       .  S
O142       Zr148   2.384       .  S
O142        H177   0.966       .  S
O143       Zr146   2.405   1_556  S
O143       Zr163   2.402       .  S
O143        H180   0.965       .  S
O144       Zr147   2.397       .  S
O144       Zr163   2.396       .  S
Zr145       O170   2.442   1_556  S
Zr145       O164   2.426   1_556  S
Zr145       O172   2.427       .  S
Zr145       O160   2.437   1_556  S
Zr145       O151   2.389       .  S
Zr145       O152   2.404       .  S
Zr145       O153   2.377   1_556  S
Zr145       O154   2.385       .  S
Zr146       O165   2.435       .  S
Zr146       O158   2.435       .  S
Zr146       O159   2.437       .  S
Zr146       O152   2.397   1_554  S
Zr146       O153   2.399       .  S
Zr147       O149   2.440       .  S
Zr147       O171   2.435       .  S
Zr147       O173   2.445       .  S
Zr147       O151   2.378       .  S
Zr147       O154   2.397       .  S
Zr148       O174   2.436       .  S
Zr148       O175   2.436       .  S
Zr148       O150   2.434       .  S
Zr148       O151   2.373       .  S
Zr148       O152   2.382       .  S
O149        H186   0.990       .  S
O150        H181   0.990       .  S
O150        H195   0.990       .  S
O152        H178   0.965   1_556  S
O153       Zr163   2.379   1_554  S
O154       Zr163   2.383       .  S
O154        H179   0.966       .  S
C155       C1930   1.487       .  S
C156       C2122   1.489       .  S
C157       C1906   1.498       .  S
O158        H194   0.990       .  S
O159        C161   1.284       .  A
O160        C161   1.284       .  A
C161       C1877   1.478       .  S
O162       Zr163   2.440       .  S
O162        H191   0.990       .  S
Zr163       O166   2.438   1_556  S
Zr163       O167   2.440       .  S
Zr163       O168   2.432   1_556  S
O164        C169   1.281       .  A
O165        H182   0.990       .  S
O165        H197   0.990       .  S
O166        H183   0.990       .  S
O167        H187   0.990       .  S
O167        H196   0.990       .  S
O168        C169   1.282       .  A
C169       C1997   1.481       .  S
O170        H189   0.991       .  S
O170        H193   0.990       .  S
O171        H185   0.990       .  S
O171        H192   0.990       .  S
O172        C176   1.284       .  A
O173        C176   1.286       .  A
O174        H184   0.990       .  S
O175        H188   0.990       .  S
C176       C1853   1.478       .  S
Zr199       O200   2.440       .  S
Zr199       O201   2.473       .  S
Zr199       O202   2.462       .  S
Zr199       O205   2.473       .  S
Zr199       O207   2.390       .  S
Zr199       O208   2.389       .  S
Zr199       O209   2.423       .  S
Zr199       O210   2.414       .  S
O200        H256   0.990       .  S
O200        H264   0.991       .  S
O201        C221   1.290       .  A
O202        C223   1.289       .  A
O203       Zr213   2.417       .  S
O203        C222   1.283       .  A
O204       Zr212   2.426       .  S
O204        C223   1.284       .  A
O205        C222   1.291       .  A
O206       Zr214   2.402       .  S
O206        C221   1.278       .  A
O207       Zr212   2.402       .  S
O207       Zr214   2.385       .  S
O208       Zr213   2.399       .  S
O208       Zr214   2.378       .  S
O208        H243   0.966       .  S
O209       Zr212   2.407       .  S
O209       Zr229   2.385       .  S
O209        H246   0.964       .  S
O210       Zr213   2.397       .  S
O210       Zr229   2.404       .  S
Zr211       O236   2.444       .  S
Zr211       O230   2.428       .  S
Zr211       O238   2.408       .  S
Zr211       O226   2.424       .  S
Zr211       O217   2.398       .  S
Zr211       O218   2.404       .  S
Zr211       O219   2.369       .  S
Zr211       O220   2.378       .  S
Zr212       O231   2.436       .  S
Zr212       O224   2.435       .  S
Zr212       O225   2.446       .  S
Zr212       O218   2.400       .  S
Zr212       O219   2.396       .  S
Zr213       O215   2.434       .  S
Zr213       O237   2.436       .  S
Zr213       O239   2.447       .  S
Zr213       O217   2.382       .  S
Zr213       O220   2.394       .  S
Zr214       O240   2.436       .  S
Zr214       O241   2.437       .  S
Zr214       O216   2.438       .  S
Zr214       O217   2.386       .  S
Zr214       O218   2.387       .  S
O215        H252   0.990       .  S
O216        H247   0.990       .  S
O216        H261   0.990       .  S
O218        H244   0.965       .  S
O219       Zr229   2.382       .  S
O220       Zr229   2.374       .  S
O220        H245   0.966       .  S
C221       C1925   1.486       .  S
C222       C1757   1.503       .  S
C223       C1829   1.484       .  S
O224        H260   0.990       .  S
O225        C227   1.286       .  A
O226        C227   1.280       .  A
C227       C1733   1.478       .  S
O228       Zr229   2.439       .  S
O228        H257   0.990       .  S
Zr229       O232   2.438       .  S
Zr229       O233   2.437       .  S
Zr229       O234   2.426       .  S
O230        C235   1.282       .  A
O231        H248   0.990       .  S
O231        H263   0.990       .  S
O232        H249   0.990       .  S
O233        H253   0.990       .  S
O233        H262   0.990       .  S
O234        C235   1.282       .  A
C235       C1805   1.484       .  S
O236        H255   0.991       .  S
O236        H259   0.990       .  S
O237        H251   0.990       .  S
O237        H258   0.990       .  S
O238        C242   1.281       .  A
O239        C242   1.287       .  A
O240        H250   0.990       .  S
O241        H254   0.990       .  S
C242       C1781   1.490       .  S
Zr265       O266   2.440       .  S
Zr265       O267   2.469       .  S
Zr265       O268   2.469       .  S
Zr265       O271   2.461       .  S
Zr265       O273   2.385       .  S
Zr265       O274   2.393       .  S
Zr265       O275   2.420       .  S
Zr265       O276   2.413       .  S
O266        H322   0.990       .  S
O266        H330   0.991       .  S
O267        C287   1.289       .  A
O268        C289   1.290       .  A
O269       Zr279   2.434       .  S
O269        C288   1.286       .  A
O270       Zr278   2.430       .  S
O270        C289   1.285       .  A
O271        C288   1.289       .  A
O272       Zr280   2.394       .  S
O272        C287   1.277       .  A
O273       Zr278   2.395       .  S
O273       Zr280   2.385       .  S
O274       Zr279   2.400       .  S
O274       Zr280   2.377       .  S
O274        H309   0.965       .  S
O275       Zr278   2.406       .  S
O275       Zr295   2.381       .  S
O275        H312   0.963       .  S
O276       Zr279   2.398       .  S
O276       Zr295   2.399       .  S
Zr277       O302   2.442       .  S
Zr277       O296   2.438       .  S
Zr277       O304   2.427       .  S
Zr277       O292   2.439       .  S
Zr277       O283   2.402       .  S
Zr277       O284   2.405       .  S
Zr277       O285   2.374       .  S
Zr277       O286   2.381       .  S
Zr278       O297   2.435       .  S
Zr278       O290   2.434       .  S
Zr278       O291   2.435       .  S
Zr278       O284   2.402       .  S
Zr278       O285   2.399       .  S
Zr279       O281   2.434       .  S
Zr279       O303   2.438       .  S
Zr279       O305   2.444       .  S
Zr279       O283   2.383       .  S
Zr279       O286   2.396       .  S
Zr280       O306   2.436       .  S
Zr280       O307   2.436   1_455  S
Zr280       O282   2.438       .  S
Zr280       O283   2.386       .  S
Zr280       O284   2.376       .  S
O281        H318   0.990       .  S
O282        H313   0.990   1_455  S
O282        H327   0.990       .  S
O284        H310   0.938       .  S
O285       Zr295   2.380       .  S
O286       Zr295   2.372       .  S
O286        H311   0.968       .  S
C287       C1661   1.487       .  S
C288       C1637   1.497   1_545  S
C289       C1709   1.494       .  S
O290        H326   0.990       .  S
O291        C293   1.285       .  A
O292        C293   1.286       .  A
C293       C1589   1.481       .  S
O294       Zr295   2.434       .  S
O294        H323   0.990       .  S
Zr295       O298   2.437       .  S
Zr295       O299   2.436       .  S
Zr295       O300   2.418       .  S
O296        C301   1.286       .  A
O297        H314   0.990       .  S
O297        H329   0.990       .  S
O298        H315   0.990       .  S
O299        H319   0.990       .  S
O299        H328   0.990       .  S
O300        C301   1.280       .  A
C301       C1690   1.486       .  S
O302        H321   0.991       .  S
O302        H325   0.990       .  S
O303        H317   0.990       .  S
O303        H324   0.989       .  S
O304        C308   1.284       .  A
O305        C308   1.287       .  A
O306        H316   0.990   1_455  S
O307        H320   0.990       .  S
C308       C1613   1.481       .  S
Zr331       O332   2.442       .  S
Zr331       O333   2.473       .  S
Zr331       O334   2.468       .  S
Zr331       O337   2.474       .  S
Zr331       O339   2.390       .  S
Zr331       O340   2.389       .  S
Zr331       O341   2.422       .  S
Zr331       O342   2.401       .  S
O332        H388   0.990       .  S
O332        H396   0.991       .  S
O333        C353   1.290       .  A
O334        C355   1.289       .  A
O335       Zr345   2.424       .  S
O335        C354   1.284       .  A
O336       Zr344   2.411       .  S
O336        C355   1.281       .  A
O337        C354   1.292       .  A
O338       Zr346   2.395       .  S
O338        C353   1.276       .  A
O339       Zr344   2.398       .  S
O339       Zr346   2.382       .  S
O340       Zr345   2.395       .  S
O340       Zr346   2.386       .  S
O340        H375   0.966       .  S
O341       Zr344   2.406       .  S
O341       Zr361   2.403       .  S
O341        H378   0.965       .  S
O342       Zr345   2.391       .  S
O342       Zr361   2.393       .  S
Zr343       O368   2.442       .  S
Zr343       O362   2.430       .  S
Zr343       O370   2.436       .  S
Zr343       O358   2.431       .  S
Zr343       O349   2.393       .  S
Zr343       O350   2.400       .  S
Zr343       O351   2.377       .  S
Zr343       O352   2.380       .  S
Zr344       O363   2.437       .  S
Zr344       O356   2.433       .  S
Zr344       O357   2.439       .  S
Zr344       O350   2.389       .  S
Zr344       O351   2.392       .  S
Zr345       O347   2.435       .  S
Zr345       O369   2.436       .  S
Zr345       O371   2.428       .  S
Zr345       O349   2.392       .  S
Zr345       O352   2.392       .  S
Zr346       O372   2.434       .  S
Zr346       O373   2.436   1_655  S
Zr346       O348   2.441   1_655  S
Zr346       O349   2.380       .  S
Zr346       O350   2.387       .  S
O347        H384   0.990       .  S
O348        H379   0.990   1_455  S
O348        H393   0.990       .  S
O350        H376   0.965       .  S
O351       Zr361   2.375       .  S
O352       Zr361   2.379       .  S
O352        H377   0.965       .  S
C353       C1666   1.481       .  S
C354       C1901   1.491       .  S
C355       C1546   1.482       .  S
O356        H392   0.990       .  S
O357        C359   1.285       .  A
O358        C359   1.284       .  A
C359       C1570   1.475       .  S
O360       Zr361   2.436       .  S
O360        H389   0.990       .  S
Zr361       O364   2.436       .  S
Zr361       O365   2.437       .  S
Zr361       O366   2.428       .  S
O362        C367   1.283       .  A
O363        H380   0.990       .  S
O363        H395   0.990       .  S
O364        H381   0.990       .  S
O365        H385   0.990       .  S
O365        H394   0.990       .  S
O366        C367   1.283       .  A
C367       C1786   1.492       .  S
O368        H387   0.989       .  S
O368        H391   0.991       .  S
O369        H383   0.990       .  S
O369        H390   0.990       .  S
O370        C374   1.284       .  A
O371        C374   1.282       .  A
O372        H382   0.990   1_655  S
O373        H386   0.990       .  S
C374       C1517   1.469       .  S
Zr397       O398   2.440       .  S
Zr397       O399   2.471       .  S
Zr397       O400   2.495       .  S
Zr397       O403   2.469       .  S
Zr397       O405   2.385       .  S
Zr397       O406   2.400       .  S
Zr397       O407   2.417       .  S
Zr397       O408   2.420       .  S
O398        H454   0.990       .  S
O398        H462   0.991       .  S
O399        C419   1.289       .  A
O400        C421   1.296       .  A
O401       Zr411   2.413       .  S
O401        C420   1.282       .  A
O402       Zr410   2.428       .  S
O402        C421   1.284       .  A
O403        C420   1.292       .  A
O404       Zr412   2.390       .  S
O404        C419   1.276       .  A
O405       Zr410   2.396       .  S
O405       Zr412   2.385       .  S
O406       Zr411   2.404       .  S
O406       Zr412   2.377       .  S
O406        H441   0.966       .  S
O407       Zr410   2.404       .  S
O407       Zr427   2.388       .  S
O407        H444   0.964       .  S
O408       Zr411   2.401       .  S
O408       Zr427   2.399       .  S
Zr409       O434   2.441       .  S
Zr409       O428   2.419       .  S
Zr409       O436   2.424       .  S
Zr409       O424   2.424       .  S
Zr409       O415   2.390       .  S
Zr409       O416   2.398       .  S
Zr409       O417   2.374       .  S
Zr409       O418   2.378       .  S
Zr410       O429   2.436       .  S
Zr410       O422   2.437       .  S
Zr410       O423   2.438       .  S
Zr410       O416   2.399       .  S
Zr410       O417   2.393       .  S
Zr411       O413   2.436       .  S
Zr411       O435   2.435       .  S
Zr411       O437   2.447       .  S
Zr411       O415   2.375       .  S
Zr411       O418   2.391       .  S
Zr412       O438   2.439       .  S
Zr412       O439   2.436       .  S
Zr412       O414   2.435       .  S
Zr412       O415   2.381       .  S
Zr412       O416   2.378       .  S
O413        H450   0.990       .  S
O414        H445   0.990       .  S
O414        H459   0.989       .  S
O416        H442   0.964       .  S
O417       Zr427   2.378       .  S
O418       Zr427   2.380       .  S
O418        H443   0.966       .  S
C419       C1498   1.482       .  S
C420       C2045   1.492       .  S
C421       C1642   1.500       .  S
O422        H458   0.990       .  S
O423        C425   1.285       .  A
O424        C425   1.282       .  A
C425       C1738   1.476       .  S
O426       Zr427   2.440       .  S
O426        H455   0.990       .  S
Zr427       O430   2.436       .  S
Zr427       O431   2.441       .  S
Zr427       O432   2.431       .  S
O428        C433   1.282       .  A
O429        H446   0.990       .  S
O429        H461   0.990       .  S
O430        H447   0.989       .  S
O431        H451   0.990       .  S
O431        H460   0.989       .  S
O432        C433   1.283       .  A
C433       C1565   1.494       .  S
O434        H453   0.990       .  S
O434        H457   0.990       .  S
O435        H449   0.990       .  S
O435        H456   0.989       .  S
O436        C440   1.283       .  A
O437        C440   1.286       .  A
O438        H448   0.990       .  S
O439        H452   0.990       .  S
C440       C1474   1.480       .  S
Zr463       O464   2.441       .  S
Zr463       O465   2.477       .  S
Zr463       O466   2.466       .  S
Zr463       O469   2.466       .  S
Zr463       O471   2.387       .  S
Zr463       O472   2.388       .  S
Zr463       O473   2.427       .  S
Zr463       O474   2.406       .  S
O464        H520   0.990       .  S
O464        H528   0.990       .  S
O465        C485   1.290       .  A
O466        C487   1.289       .  A
O467       Zr477   2.422       .  S
O467        C486   1.282       .  A
O468       Zr476   2.412   1_556  S
O468        C487   1.281       .  A
O469        C486   1.290       .  A
O470       Zr478   2.385       .  S
O470        C485   1.274       .  A
O471       Zr476   2.398   1_556  S
O471       Zr478   2.383       .  S
O472       Zr477   2.397       .  S
O472       Zr478   2.382       .  S
O472        H507   0.965       .  S
O473       Zr476   2.403   1_556  S
O473       Zr493   2.406       .  S
O473        H510   0.965       .  S
O474       Zr477   2.389       .  S
O474       Zr493   2.396       .  S
Zr475       O500   2.440   1_556  S
Zr475       O494   2.420   1_556  S
Zr475       O502   2.425       .  S
Zr475       O490   2.440   1_556  S
Zr475       O481   2.393       .  S
Zr475       O482   2.395       .  S
Zr475       O483   2.378   1_556  S
Zr475       O484   2.381       .  S
Zr476       O495   2.437       .  S
Zr476       O488   2.435       .  S
Zr476       O489   2.433       .  S
Zr476       O482   2.394   1_554  S
Zr476       O483   2.390       .  S
Zr477       O479   2.435       .  S
Zr477       O501   2.438       .  S
Zr477       O503   2.437       .  S
Zr477       O481   2.388       .  S
Zr477       O484   2.388       .  S
Zr478       O504   2.434       .  S
Zr478       O505   2.434       .  S
Zr478       O480   2.438       .  S
Zr478       O481   2.383       .  S
Zr478       O482   2.381       .  S
O479        H516   0.990       .  S
O480        H511   0.990       .  S
O480        H525   0.989       .  S
O482        H508   0.965       .  S
O483       Zr493   2.374   1_554  S
O484       Zr493   2.375       .  S
O484        H509   0.966       .  S
C485       C1493   1.481       .  S
C486       C1445   1.485       .  S
C487       C1402   1.487       .  S
O488        H524   0.990       .  S
O489        C491   1.284       .  A
O490        C491   1.285       .  A
C491       C2026   1.475       .  S
O492       Zr493   2.439       .  S
O492        H521   0.990       .  S
Zr493       O496   2.435   1_556  S
Zr493       O497   2.438       .  S
Zr493       O498   2.437   1_556  S
O494        C499   1.282       .  A
O495        H512   0.990       .  S
O495        H527   0.990       .  S
O496        H513   0.989       .  S
O497        H517   0.990       .  S
O497        H526   0.989       .  S
O498        C499   1.285       .  A
C499       C1421   1.488       .  S
O500        H519   0.991       .  S
O500        H523   0.990       .  S
O501        H515   0.990       .  S
O501        H522   0.990       .  S
O502        C506   1.285       .  A
O503        C506   1.286       .  A
O504        H514   0.990       .  S
O505        H518   0.990       .  S
C506       C1858   1.486       .  S
Zr529       O530   2.441       .  S
Zr529       O531   2.494       .  S
Zr529       O532   2.473       .  S
Zr529       O535   2.480       .  S
Zr529       O537   2.393       .  S
Zr529       O538   2.388       .  S
Zr529       O539   2.427       .  S
Zr529       O540   2.406       .  S
O530        H586   0.990       .  S
O530        H594   0.991       .  S
O531        C551   1.294       .  A
O532        C553   1.291       .  A
O533       Zr543   2.406       .  S
O533        C552   1.280       .  A
O534       Zr542   2.417       .  S
O534        C553   1.283       .  A
O535        C552   1.293       .  A
O536       Zr544   2.383       .  S
O536        C551   1.276       .  A
O537       Zr542   2.407       .  S
O537       Zr544   2.381       .  S
O538       Zr543   2.387       .  S
O538       Zr544   2.383       .  S
O538        H573   0.966       .  S
O539       Zr542   2.412       .  S
O539       Zr559   2.402       .  S
O539        H576   0.965       .  S
O540       Zr543   2.390       .  S
O540       Zr559   2.397       .  S
Zr541       O566   2.442       .  S
Zr541       O560   2.434       .  S
Zr541       O568   2.417       .  S
Zr541       O556   2.419       .  S
Zr541       O547   2.394       .  S
Zr541       O548   2.401       .  S
Zr541       O549   2.372       .  S
Zr541       O550   2.376       .  S
Zr542       O561   2.436       .  S
Zr542       O554   2.435       .  S
Zr542       O555   2.452       .  S
Zr542       O548   2.386       .  S
Zr542       O549   2.398       .  S
Zr543       O545   2.435       .  S
Zr543       O567   2.438       .  S
Zr543       O569   2.416       .  S
Zr543       O547   2.386       .  S
Zr543       O550   2.392       .  S
Zr544       O570   2.434       .  S
Zr544       O571   2.438       .  S
Zr544       O546   2.438       .  S
Zr544       O547   2.382       .  S
Zr544       O548   2.378       .  S
O545        H582   0.990       .  S
O546        H577   0.990       .  S
O546        H591   0.990       .  S
O548        H574   0.964       .  S
O549       Zr559   2.379       .  S
O550       Zr559   2.377       .  S
O550        H575   0.965       .  S
C551       C1330   1.504       .  S
C552       C1378   1.489       .  S
C553       C1306   1.489       .  S
O554        H590   0.990       .  S
O555        C557   1.287       .  A
O556        C557   1.283       .  A
C557       C1685   1.495       .  S
O558       Zr559   2.438       .  S
O558        H587   0.991       .  S
Zr559       O562   2.438       .  S
Zr559       O563   2.439       .  S
Zr559       O564   2.437       .  S
O560        C565   1.283       .  A
O561        H578   0.990       .  S
O561        H593   0.990       .  S
O562        H579   0.990       .  S
O563        H583   0.990       .  S
O563        H592   0.989       .  S
O564        C565   1.284       .  A
C565       C1349   1.492       .  S
O566        H585   0.990       .  S
O566        H589   0.991       .  S
O567        H581   0.989       .  S
O567        H588   0.990       .  S
O568        C572   1.281       .  A
O569        C572   1.280       .  A
O570        H580   0.989       .  S
O571        H584   0.990       .  S
C572       C1282   1.461       .  S
Zr595       O596   2.439       .  S
Zr595       O597   2.477       .  S
Zr595       O598   2.483       .  S
Zr595       O601   2.467       .  S
Zr595       O603   2.382       .  S
Zr595       O604   2.392       .  S
Zr595       O605   2.421       .  S
Zr595       O606   2.420       .  S
O596        H652   0.990       .  S
O596        H660   0.989       .  S
O597        C617   1.289       .  A
O598        C619   1.294       .  A
O599       Zr609   2.433       .  S
O599        C618   1.285       .  A
O600       Zr608   2.440       .  S
O600        C619   1.288       .  A
O601        C618   1.290       .  A
O602       Zr610   2.396       .  S
O602        C617   1.276       .  A
O603       Zr608   2.402       .  S
O603       Zr610   2.386       .  S
O604       Zr609   2.402       .  S
O604       Zr610   2.379       .  S
O604        H639   0.965       .  S
O605       Zr608   2.408       .  S
O605       Zr625   2.381       .  S
O605        H642   0.962       .  S
O606       Zr609   2.397       .  S
O606       Zr625   2.409       .  S
Zr607       O632   2.442       .  S
Zr607       O626   2.427       .  S
Zr607       O634   2.419   1_554  S
Zr607       O622   2.417       .  S
Zr607       O613   2.397       .  S
Zr607       O614   2.399       .  S
Zr607       O615   2.370       .  S
Zr607       O616   2.379       .  S
Zr608       O627   2.437       .  S
Zr608       O620   2.434       .  S
Zr608       O621   2.458       .  S
Zr608       O614   2.400       .  S
Zr608       O615   2.398       .  S
Zr609       O611   2.435   1_554  S
Zr609       O633   2.437       .  S
Zr609       O635   2.432   1_554  S
Zr609       O613   2.397       .  S
Zr609       O616   2.399       .  S
Zr610       O636   2.437       .  S
Zr610       O637   2.436       .  S
Zr610       O612   2.439       .  S
Zr610       O613   2.389       .  S
Zr610       O614   2.385       .  S
O611        H648   0.990       .  S
O612        H643   0.990       .  S
O612        H657   0.990       .  S
O614        H640   0.965       .  S
O615       Zr625   2.376       .  S
O616       Zr625   2.371       .  S
O616        H641   0.966   1_554  S
C617       C1325   1.485       .  S
C618       C1714   1.501       .  S
C619       C1973   1.501       .  S
O620        H656   0.990       .  S
O621        C623   1.289       .  A
O622        C623   1.282       .  A
C623       C1229   1.481       .  S
O624       Zr625   2.436       .  S
O624        H653   0.990       .  S
Zr625       O628   2.434       .  S
Zr625       O629   2.437   1_554  S
Zr625       O630   2.440       .  S
O626        C631   1.283   1_554  A
O627        H644   0.990       .  S
O627        H659   0.990       .  S
O628        H645   0.990       .  S
O629        H649   0.990       .  S
O629        H658   0.990       .  S
O630        C631   1.284   1_554  A
C631       C2093   1.496       .  S
O632        H651   0.991   1_554  S
O632        H655   0.990       .  S
O633        H647   0.990   1_554  S
O633        H654   0.989       .  S
O634        C638   1.282       .  A
O635        C638   1.284       .  A
O636        H646   0.990       .  S
O637        H650   0.990       .  S
C638       C1258   1.482       .  S
Zr661       O662   2.437       .  S
Zr661       O663   2.482       .  S
Zr661       O664   2.496       .  S
Zr661       O667   2.487       .  S
Zr661       O669   2.389       .  S
Zr661       O670   2.397       .  S
Zr661       O671   2.423       .  S
Zr661       O672   2.419       .  S
O662        H718   0.990       .  S
O662        H726   0.989       .  S
O663        C683   1.292       .  A
O664        C685   1.296       .  A
O665       Zr675   2.426       .  S
O665        C684   1.284       .  A
O666       Zr674   2.430       .  S
O666        C685   1.286       .  A
O667        C684   1.294       .  A
O668       Zr676   2.382       .  S
O668        C683   1.275       .  A
O669       Zr674   2.402       .  S
O669       Zr676   2.390       .  S
O670       Zr675   2.403       .  S
O670       Zr676   2.378       .  S
O670        H705   0.966       .  S
O671       Zr674   2.409       .  S
O671       Zr691   2.383       .  S
O671        H708   0.964       .  S
O672       Zr675   2.398       .  S
O672       Zr691   2.402       .  S
Zr673       O698   2.443       .  S
Zr673       O692   2.425       .  S
Zr673       O700   2.406       .  S
Zr673       O688   2.423       .  S
Zr673       O679   2.396       .  S
Zr673       O680   2.398       .  S
Zr673       O681   2.372       .  S
Zr673       O682   2.379       .  S
Zr674       O693   2.436       .  S
Zr674       O686   2.434       .  S
Zr674       O687   2.448       .  S
Zr674       O680   2.401       .  S
Zr674       O681   2.391       .  S
Zr675       O677   2.435       .  S
Zr675       O699   2.435       .  S
Zr675       O701   2.450       .  S
Zr675       O679   2.384       .  S
Zr675       O682   2.392       .  S
Zr676       O702   2.436       .  S
Zr676       O703   2.438       .  S
Zr676       O678   2.439       .  S
Zr676       O679   2.380       .  S
Zr676       O680   2.374       .  S
O677        H714   0.990       .  S
O678        H709   0.990       .  S
O678        H723   0.990       .  S
O680        H706   0.964       .  S
O681       Zr691   2.379       .  S
O682       Zr691   2.370       .  S
O682        H707   0.966       .  S
C683       C1205   1.489       .  S
C684       C1181   1.505       .  S
C685       C1762   1.509       .  S
O686        H722   0.990       .  S
O687        C689   1.287       .  A
O688        C689   1.282       .  A
C689       C1954   1.480       .  S
O690       Zr691   2.437       .  S
O690        H719   0.991       .  S
Zr691       O694   2.437       .  S
Zr691       O695   2.441       .  S
Zr691       O696   2.416       .  S
O692        C697   1.281       .  A
O693        H710   0.990       .  S
O693        H725   0.990       .  S
O694        H711   0.990       .  S
O695        H715   0.989       .  S
O695        H724   0.990       .  S
O696        C697   1.279       .  A
C697       C1882   1.463       .  S
O698        H717   0.990       .  S
O698        H721   0.990       .  S
O699        H713   0.989       .  S
O699        H720   0.990       .  S
O700        C704   1.280       .  A
O701        C704   1.288       .  A
O702        H712   0.990       .  S
O703        H716   0.990       .  S
C704       C1426   1.479       .  S
Zr727       O728   2.440       .  S
Zr727       O729   2.477       .  S
Zr727       O730   2.472       .  S
Zr727       O733   2.469       .  S
Zr727       O735   2.387       .  S
Zr727       O736   2.392       .  S
Zr727       O737   2.428       .  S
Zr727       O738   2.407       .  S
O728        H784   0.990       .  S
O728        H792   0.989       .  S
O729        C749   1.290       .  A
O730        C751   1.290       .  A
O731       Zr741   2.432       .  S
O731        C750   1.285       .  A
O732       Zr740   2.436       .  S
O732        C751   1.286       .  A
O733        C750   1.291       .  A
O734       Zr742   2.376       .  S
O734        C749   1.274       .  A
O735       Zr740   2.402       .  S
O735       Zr742   2.386       .  S
O736       Zr741   2.391       .  S
O736       Zr742   2.389       .  S
O736        H771   0.966       .  S
O737       Zr740   2.403       .  S
O737       Zr757   2.407       .  S
O737        H774   0.965       .  S
O738       Zr741   2.389       .  S
O738       Zr757   2.398       .  S
Zr739       O764   2.442       .  S
Zr739       O758   2.415       .  S
Zr739       O766   2.431       .  S
Zr739       O754   2.428       .  S
Zr739       O745   2.394       .  S
Zr739       O746   2.395       .  S
Zr739       O747   2.381       .  S
Zr739       O748   2.378       .  S
Zr740       O759   2.435       .  S
Zr740       O752   2.436       .  S
Zr740       O753   2.453       .  S
Zr740       O746   2.397       .  S
Zr740       O747   2.397       .  S
Zr741       O743   2.436       .  S
Zr741       O765   2.441       .  S
Zr741       O767   2.430       .  S
Zr741       O745   2.392       .  S
Zr741       O748   2.396       .  S
Zr742       O768   2.434       .  S
Zr742       O769   2.436       .  S
Zr742       O744   2.439       .  S
Zr742       O745   2.381       .  S
Zr742       O746   2.371       .  S
O743        H780   0.990       .  S
O744        H775   0.990       .  S
O744        H789   0.990       .  S
O746        H772   0.964       .  S
O747       Zr757   2.375       .  S
O748       Zr757   2.376       .  S
O748        H773   0.966       .  S
C749       C1210   1.491       .  S
C750       C1301   1.494       .  S
C751       C1450   1.503       .  S
O752        H788   0.990       .  S
O753        C755   1.288       .  A
O754        C755   1.285       .  A
C755       C1162   1.502       .  S
O756       Zr757   2.438       .  S
O756        H785   0.990       .  S
Zr757       O760   2.438       .  S
Zr757       O761   2.439       .  S
Zr757       O762   2.432       .  S
O758        C763   1.280       .  A
O759        H776   0.990       .  S
O759        H791   0.990       .  S
O760        H777   0.990       .  S
O761        H781   0.990       .  S
O761        H790   0.990       .  S
O762        C763   1.284       .  A
C763       C1253   1.487       .  S
O764        H783   0.990       .  S
O764        H787   0.990       .  S
O765        H779   0.990       .  S
O765        H786   0.990       .  S
O766        C770   1.283       .  A
O767        C770   1.283       .  A
O768        H778   0.990       .  S
O769        H782   0.990       .  S
C770       C2074   1.472       .  S
Zr793       O794   2.440       .  S
Zr793       O795   2.470       .  S
Zr793       O796   2.473       .  S
Zr793       O799   2.454       .  S
Zr793       O801   2.384       .  S
Zr793       O802   2.394       .  S
Zr793       O803   2.423       .  S
Zr793       O804   2.403       .  S
O794        H850   0.990       .  S
O794        H858   0.990       .  S
O795        C815   1.289       .  A
O796        C817   1.290       .  A
O797       Zr807   2.421       .  S
O797        C816   1.283       .  A
O798       Zr806   2.429       .  S
O798        C817   1.284       .  A
O799        C816   1.288       .  A
O800       Zr808   2.378       .  S
O800        C815   1.274       .  A
O801       Zr806   2.394       .  S
O801       Zr808   2.383       .  S
O802       Zr807   2.395       .  S
O802       Zr808   2.387       .  S
O802        H837   0.966       .  S
O803       Zr806   2.404       .  S
O803       Zr823   2.401       .  S
O803        H840   0.965       .  S
O804       Zr807   2.391       .  S
O804       Zr823   2.393       .  S
Zr805       O830   2.441       .  S
Zr805       O824   2.417       .  S
Zr805       O832   2.413       .  S
Zr805       O820   2.422       .  S
Zr805       O811   2.392       .  S
Zr805       O812   2.395       .  S
Zr805       O813   2.376       .  S
Zr805       O814   2.374       .  S
Zr806       O825   2.436       .  S
Zr806       O818   2.434       .  S
Zr806       O819   2.437       .  S
Zr806       O812   2.396       .  S
Zr806       O813   2.395       .  S
Zr807       O809   2.437       .  S
Zr807       O831   2.435       .  S
Zr807       O833   2.435       .  S
Zr807       O811   2.385       .  S
Zr807       O814   2.387       .  S
Zr808       O834   2.435       .  S
Zr808       O835   2.436       .  S
Zr808       O810   2.439       .  S
Zr808       O811   2.382       .  S
Zr808       O812   2.377       .  S
O809        H846   0.990       .  S
O810        H841   0.990       .  S
O810        H855   0.990       .  S
O812        H838   0.966       .  S
O813       Zr823   2.374       .  S
O814       Zr823   2.376       .  S
O814        H839   0.966       .  S
C815       C1133   1.477       .  S
C816       C1541   1.488       .  S
C817       C2189   1.491       .  S
O818        H854   0.990       .  S
O819        C821   1.285       .  A
O820        C821   1.282       .  A
C821       C1114   1.471       .  S
O822       Zr823   2.438       .  S
O822        H851   0.990       .  S
Zr823       O826   2.438       .  S
Zr823       O827   2.438       .  S
Zr823       O828   2.434       .  S
O824        C829   1.281       .  A
O825        H842   0.990       .  S
O825        H857   0.990       .  S
O826        H843   0.990       .  S
O827        H847   0.990       .  S
O827        H856   0.990       .  S
O828        C829   1.285       .  A
C829       C1618   1.488       .  S
O830        H849   0.990       .  S
O830        H853   0.990       .  S
O831        H845   0.990       .  S
O831        H852   0.990       .  S
O832        C836   1.282       .  A
O833        C836   1.285       .  A
O834        H844   0.990       .  S
O835        H848   0.990       .  S
C836       C1277   1.481       .  S
Zr859       O860   2.441       .  S
Zr859       O861   2.485       .  S
Zr859       O862   2.482       .  S
Zr859       O865   2.461       .  S
Zr859       O867   2.384       .  S
Zr859       O868   2.396       .  S
Zr859       O869   2.419       .  S
Zr859       O870   2.422       .  S
O860        H916   0.990       .  S
O860        H924   0.990       .  S
O861        C881   1.292       .  A
O862        C883   1.293       .  A
O863       Zr873   2.418       .  S
O863        C882   1.284       .  A
O864       Zr872   2.433       .  S
O864        C883   1.285       .  A
O865        C882   1.289       .  A
O866       Zr874   2.393       .  S
O866        C881   1.276       .  A
O867       Zr872   2.399       .  S
O867       Zr874   2.391       .  S
O868       Zr873   2.405       .  S
O868       Zr874   2.376       .  S
O868        H903   0.966       .  S
O869       Zr872   2.402       .  S
O869       Zr889   2.386       .  S
O869        H906   0.963       .  S
O870       Zr873   2.399       .  S
O870       Zr889   2.405       .  S
Zr871       O896   2.441       .  S
Zr871       O890   2.431       .  S
Zr871       O898   2.437   1_554  S
Zr871       O886   2.423       .  S
Zr871       O877   2.399       .  S
Zr871       O878   2.399       .  S
Zr871       O879   2.376       .  S
Zr871       O880   2.379       .  S
Zr872       O891   2.435       .  S
Zr872       O884   2.434       .  S
Zr872       O885   2.440       .  S
Zr872       O878   2.399       .  S
Zr872       O879   2.395       .  S
Zr873       O875   2.437   1_554  S
Zr873       O897   2.436       .  S
Zr873       O899   2.458   1_554  S
Zr873       O877   2.385       .  S
Zr873       O880   2.392       .  S
Zr874       O900   2.437       .  S
Zr874       O901   2.436       .  S
Zr874       O876   2.438       .  S
Zr874       O877   2.387       .  S
Zr874       O878   2.381       .  S
O875        H912   0.990       .  S
O876        H907   0.990       .  S
O876        H921   0.990       .  S
O878        H904   0.965       .  S
O879       Zr889   2.377       .  S
O880       Zr889   2.374       .  S
O880        H905   0.966   1_554  S
C881       C1138   1.488       .  S
C882       C1085   1.492       .  S
C883       C1186   1.502       .  S
O884        H920   0.990       .  S
O885        C887   1.286       .  A
O886        C887   1.284       .  A
C887       C1234   1.477       .  S
O888       Zr889   2.439       .  S
O888        H917   0.990       .  S
Zr889       O892   2.439       .  S
Zr889       O893   2.437   1_554  S
Zr889       O894   2.434       .  S
O890        C895   1.284   1_554  A
O891        H908   0.990       .  S
O891        H923   0.990       .  S
O892        H909   0.990       .  S
O893        H913   0.989       .  S
O893        H922   0.990       .  S
O894        C895   1.283   1_554  A
C895       C1157   1.486       .  S
O896        H915   0.990   1_554  S
O896        H919   0.990       .  S
O897        H911   0.990       .  S
O897        H918   0.990   1_554  S
O898        C902   1.285       .  A
O899        C902   1.288       .  A
O900        H910   0.990       .  S
O901        H914   0.990       .  S
C902       C2165   1.491       .  S
Zr925       O926   2.443       .  S
Zr925       O927   2.474       .  S
Zr925       O928   2.447       .  S
Zr925       O931   2.460       .  S
Zr925       O933   2.390       .  S
Zr925       O934   2.387       .  S
Zr925       O935   2.426       .  S
Zr925       O936   2.403       .  S
O926        H982   0.990       .  S
O926        H990   0.990       .  S
O927        C947   1.290       .  A
O928        C949   1.285       .  A
O929       Zr939   2.425       .  S
O929        C948   1.283       .  A
O930       Zr938   2.432       .  S
O930        C949   1.284       .  A
O931        C948   1.289       .  A
O932       Zr940   2.379       .  S
O932        C947   1.275       .  A
O933       Zr938   2.401       .  S
O933       Zr940   2.385       .  S
O934       Zr939   2.382       .  S
O934       Zr940   2.393       .  S
O934        H969   0.966       .  S
O935       Zr938   2.401       .  S
O935       Zr955   2.411       .  S
O935        H972   0.966       .  S
O936       Zr939   2.387       .  S
O936       Zr955   2.402       .  S
Zr937       O962   2.442       .  S
Zr937       O956   2.412       .  S
Zr937       O964   2.428       .  S
Zr937       O952   2.426       .  S
Zr937       O943   2.389       .  S
Zr937       O944   2.395       .  S
Zr937       O945   2.378       .  S
Zr937       O946   2.376       .  S
Zr938       O957   2.438       .  S
Zr938       O950   2.432       .  S
Zr938       O951   2.454       .  S
Zr938       O944   2.391       .  S
Zr938       O945   2.393       .  S
Zr939       O941   2.435       .  S
Zr939       O963   2.440       .  S
Zr939       O965   2.416       .  S
Zr939       O943   2.392       .  S
Zr939       O946   2.396       .  S
Zr940       O966   2.434       .  S
Zr940       O967   2.438   1_455  S
Zr940       O942   2.438       .  S
Zr940       O943   2.383       .  S
Zr940       O944   2.365       .  S
O941        H978   0.990       .  S
O942        H973   0.990   1_455  S
O942        H987   0.990       .  S
O944        H970   0.965       .  S
O945       Zr955   2.374       .  S
O946       Zr955   2.375       .  S
O946        H971   0.966       .  S
C947       C1066   1.474       .  S
C948       C1397   1.490       .  S
C949       C1373   1.485       .  S
O950        H986   0.990       .  S
O951        C953   1.289       .  A
O952        C953   1.285       .  A
C953       C1810   1.484       .  S
O954       Zr955   2.440       .  S
O954        H983   0.990       .  S
Zr955       O958   2.437       .  S
Zr955       O959   2.440       .  S
Zr955       O960   2.450       .  S
O956        C961   1.279       .  A
O957        H974   0.990       .  S
O957        H989   0.990       .  S
O958        H975   0.990       .  S
O959        H979   0.990       .  S
O959        H988   0.990       .  S
O960        C961   1.287       .  A
C961       C1469   1.498       .  S
O962        H981   0.990       .  S
O962        H985   0.990       .  S
O963        H977   0.990       .  S
O963        H984   0.990       .  S
O964        C968   1.283       .  A
O965        C968   1.281       .  A
O966        H976   0.990   1_455  S
O967        H980   0.990       .  S
C968       C1522   1.479       .  S
Zr991       O992   2.441       .  S
Zr991       O993   2.454       .  S
Zr991       O994   2.472       .  S
Zr991       O997   2.452       .  S
Zr991       O999   2.382       .  S
Zr991      O1000   2.392       .  S
Zr991      O1001   2.414       .  S
Zr991      O1002   2.416       .  S
O992       H1048   0.990       .  S
O992       H1056   0.989       .  S
O993       C1013   1.286       .  A
O994       C1015   1.291       .  A
O995      Zr1005   2.434       .  S
O995       C1014   1.285       .  A
O996      Zr1004   2.423       .  S
O996       C1015   1.283       .  A
O997       C1014   1.288       .  A
O998      Zr1006   2.382       .  S
O998       C1013   1.275       .  A
O999      Zr1004   2.397       .  S
O999      Zr1006   2.387       .  S
O1000     Zr1005   2.399       .  S
O1000     Zr1006   2.375       .  S
O1000      H1035   0.966       .  S
O1001     Zr1004   2.410       .  S
O1001     Zr1021   2.389       .  S
O1001      H1038   0.964       .  S
O1002     Zr1005   2.402       .  S
O1002     Zr1021   2.400       .  S
Zr1003     O1028   2.442       .  S
Zr1003     O1022   2.422       .  S
Zr1003     O1030   2.421       .  S
Zr1003     O1018   2.430       .  S
Zr1003     O1009   2.394       .  S
Zr1003     O1010   2.394       .  S
Zr1003     O1011   2.376       .  S
Zr1003     O1012   2.383       .  S
Zr1004     O1023   2.438       .  S
Zr1004     O1016   2.434       .  S
Zr1004     O1017   2.441       .  S
Zr1004     O1010   2.396       .  S
Zr1004     O1011   2.393       .  S
Zr1005     O1007   2.434       .  S
Zr1005     O1029   2.437       .  S
Zr1005     O1031   2.453       .  S
Zr1005     O1009   2.384       .  S
Zr1005     O1012   2.393       .  S
Zr1006     O1032   2.435       .  S
Zr1006     O1033   2.435   1_655  S
Zr1006     O1008   2.436       .  S
Zr1006     O1009   2.376       .  S
Zr1006     O1010   2.380       .  S
O1007      H1044   0.990       .  S
O1008      H1039   0.990   1_655  S
O1008      H1053   0.990       .  S
O1010      H1036   0.965       .  S
O1011     Zr1021   2.380       .  S
O1012     Zr1021   2.375       .  S
O1012      H1037   0.966       .  S
C1013      C1061   1.472       .  S
C1014      C1834   1.490       .  S
C1015      C1090   1.491       .  S
O1016      H1052   0.990       .  S
O1017      C1019   1.286       .  A
O1018      C1019   1.283       .  A
C1019      C1594   1.482       .  S
O1020     Zr1021   2.437       .  S
O1020      H1049   0.990       .  S
Zr1021     O1024   2.438       .  S
Zr1021     O1025   2.439       .  S
Zr1021     O1026   2.420       .  S
O1022      C1027   1.282       .  A
O1023      H1040   0.990       .  S
O1023      H1055   0.990       .  S
O1024      H1041   0.990       .  S
O1025      H1045   0.990       .  S
O1025      H1054   0.990       .  S
O1026      C1027   1.282       .  A
C1027      C1109   1.485       .  S
O1028      H1047   0.990       .  S
O1028      H1051   0.991       .  S
O1029      H1043   0.990       .  S
O1029      H1050   0.990       .  S
O1030      C1034   1.284       .  A
O1031      C1034   1.289       .  A
O1032      H1042   0.990   1_655  S
O1033      H1046   0.990       .  S
C1034      C1354   1.489       .  S
C1057      C1058   1.406   1_456  A
C1057      C1062   1.393   1_455  A
C1057      C1071   1.444       .  S
C1058      C1063   1.476   1_655  S
C1058      C1059   1.405       .  A
C1059      C1060   1.405   1_554  A
C1059      H1078   1.084       .  S
C1060      C1061   1.410       .  A
C1060      C1072   1.444       .  S
C1061      C1062   1.404       .  A
C1062      H1077   1.085       .  S
C1063      C1064   1.395       .  A
C1063      C1068   1.413       .  A
C1064      C1065   1.393       .  A
C1064      H1079   1.085   1_455  S
C1065      C1066   1.416       .  A
C1065      C1069   1.445       .  S
C1066      C1067   1.402       .  A
C1067      C1068   1.405       .  A
C1067      H1080   1.084       .  S
C1068      C1070   1.443       .  S
C1069      N1073   1.157       .  T
C1070      N1074   1.157       .  T
C1071      N1076   1.157       .  T
C1072      N1075   1.157       .  T
C1081      C1082   1.409       .  A
C1081      C1086   1.398       .  A
C1081      C1095   1.445   1_554  S
C1082      C1087   1.489       .  S
C1082      C1083   1.404       .  A
C1083      C1084   1.408       .  A
C1083      H1102   1.085       .  S
C1084      C1085   1.418       .  A
C1084      C1096   1.443       .  S
C1085      C1086   1.407       .  A
C1086      H1101   1.085       .  S
C1087      C1088   1.401   1_554  A
C1087      C1092   1.410       .  A
C1088      C1089   1.403       .  A
C1088      H1103   1.085       .  S
C1089      C1090   1.417       .  A
C1089      C1093   1.443       .  S
C1090      C1091   1.409       .  A
C1091      C1092   1.404   1_556  A
C1091      H1104   1.085       .  S
C1092      C1094   1.444       .  S
C1093      N1097   1.157       .  T
C1094      N1098   1.157       .  T
C1095      N1100   1.157       .  T
C1096      N1099   1.157       .  T
C1105      C1106   1.408       .  A
C1105      C1110   1.400       .  A
C1105      C1119   1.444       .  S
C1106      C1111   1.483       .  S
C1106      C1107   1.402       .  A
C1107      C1108   1.398       .  A
C1107      H1126   1.085       .  S
C1108      C1109   1.416       .  A
C1108      C1120   1.445       .  S
C1109      C1110   1.409       .  A
C1110      H1125   1.085       .  S
C1111      C1112   1.404       .  A
C1111      C1116   1.411       .  A
C1112      C1113   1.400       .  A
C1112      H1127   1.085       .  S
C1113      C1114   1.411       .  A
C1113      C1117   1.444       .  S
C1114      C1115   1.402       .  A
C1115      C1116   1.398       .  A
C1115      H1128   1.084       .  S
C1116      C1118   1.444       .  S
C1117      N1121   1.157       .  T
C1118      N1122   1.157       .  T
C1119      N1124   1.157       .  T
C1120      N1123   1.157       .  T
C1129      C1130   1.410       .  A
C1129      C1134   1.397       .  A
C1129      C1143   1.444       .  S
C1130      C1135   1.491       .  S
C1130      C1131   1.408       .  A
C1131      C1132   1.408       .  A
C1131      H1150   1.084       .  S
C1132      C1133   1.410       .  A
C1132      C1144   1.444       .  S
C1133      C1134   1.404       .  A
C1134      H1149   1.085       .  S
C1135      C1136   1.407       .  A
C1135      C1140   1.409       .  A
C1136      C1137   1.409       .  A
C1136      H1151   1.084       .  S
C1137      C1138   1.412       .  A
C1137      C1141   1.442       .  S
C1138      C1139   1.408       .  A
C1139      C1140   1.400       .  A
C1139      H1152   1.085       .  S
C1140      C1142   1.445       .  S
C1141      N1145   1.157       .  T
C1142      N1146   1.157       .  T
C1143      N1148   1.157       .  T
C1144      N1147   1.157       .  T
C1153      C1154   1.409       .  A
C1153      C1158   1.400       .  A
C1153      C1167   1.444       .  S
C1154      C1159   1.487       .  S
C1154      C1155   1.403       .  A
C1155      C1156   1.403       .  A
C1155      H1174   1.085       .  S
C1156      C1157   1.416       .  A
C1156      C1168   1.443       .  S
C1157      C1158   1.407       .  A
C1158      H1173   1.085   1_556  S
C1159      C1160   1.401       .  A
C1159      C1164   1.408       .  A
C1160      C1161   1.406       .  A
C1160      H1175   1.085       .  S
C1161      C1162   1.421       .  A
C1161      C1165   1.443       .  S
C1162      C1163   1.413       .  A
C1163      C1164   1.398       .  A
C1163      H1176   1.084       .  S
C1164      C1166   1.446       .  S
C1165      N1169   1.157       .  T
C1166      N1170   1.157       .  T
C1167      N1172   1.157       .  T
C1168      N1171   1.157       .  T
C1177      C1178   1.415       .  A
C1177      C1182   1.414       .  A
C1177      C1191   1.443       .  S
C1178      C1183   1.504       .  S
C1178      C1179   1.402       .  A
C1179      C1180   1.404       .  A
C1179      H1198   1.085       .  S
C1180      C1181   1.419       .  A
C1180      C1192   1.443       .  S
C1181      C1182   1.410       .  A
C1182      H1197   1.084       .  S
C1183      C1184   1.405       .  A
C1183      C1188   1.414       .  A
C1184      C1185   1.407       .  A
C1184      H1199   1.085       .  S
C1185      C1186   1.418       .  A
C1185      C1189   1.444       .  S
C1186      C1187   1.409       .  A
C1187      C1188   1.410       .  A
C1187      H1200   1.085       .  S
C1188      C1190   1.443       .  S
C1189      N1193   1.157       .  T
C1190      N1194   1.157       .  T
C1191      N1196   1.157       .  T
C1192      N1195   1.157       .  T
C1201      C1202   1.407       .  A
C1201      C1206   1.399       .  A
C1201      C1215   1.445       .  S
C1202      C1207   1.489       .  S
C1202      C1203   1.408       .  A
C1203      C1204   1.407       .  A
C1203      H1222   1.084       .  S
C1204      C1205   1.412       .  A
C1204      C1216   1.443       .  S
C1205      C1206   1.410       .  A
C1206      H1221   1.085       .  S
C1207      C1208   1.407       .  A
C1207      C1212   1.406       .  A
C1208      C1209   1.406       .  A
C1208      H1223   1.085       .  S
C1209      C1210   1.413       .  A
C1209      C1213   1.443       .  S
C1210      C1211   1.411       .  A
C1211      C1212   1.398       .  A
C1211      H1224   1.085       .  S
C1212      C1214   1.444       .  S
C1213      N1217   1.157       .  T
C1214      N1218   1.157       .  T
C1215      N1220   1.157       .  T
C1216      N1219   1.157       .  T
C1225      C1226   1.411       .  A
C1225      C1230   1.404       .  A
C1225      C1239   1.443       .  S
C1226      C1231   1.487       .  S
C1226      C1227   1.403       .  A
C1227      C1228   1.399       .  A
C1227      H1246   1.085       .  S
C1228      C1229   1.414       .  A
C1228      C1240   1.445       .  S
C1229      C1230   1.405       .  A
C1230      H1245   1.085       .  S
C1231      C1232   1.403       .  A
C1231      C1236   1.413       .  A
C1232      C1233   1.402       .  A
C1232      H1247   1.085       .  S
C1233      C1234   1.414       .  A
C1233      C1237   1.444       .  S
C1234      C1235   1.403       .  A
C1235      C1236   1.398       .  A
C1235      H1248   1.085       .  S
C1236      C1238   1.444       .  S
C1237      N1241   1.157       .  T
C1238      N1242   1.157       .  T
C1239      N1244   1.157       .  T
C1240      N1243   1.158       .  T
C1249      C1250   1.405       .  A
C1249      C1254   1.400       .  A
C1249      C1263   1.444       .  S
C1250      C1255   1.475       .  S
C1250      C1251   1.398       .  A
C1251      C1252   1.397       .  A
C1251      H1270   1.085       .  S
C1252      C1253   1.420       .  A
C1252      C1264   1.444       .  S
C1253      C1254   1.409       .  A
C1254      H1269   1.084       .  S
C1255      C1256   1.401       .  A
C1255      C1260   1.406       .  A
C1256      C1257   1.404       .  A
C1256      H1271   1.085       .  S
C1257      C1258   1.416       .  A
C1257      C1261   1.443       .  S
C1258      C1259   1.406       .  A
C1259      C1260   1.392       .  A
C1259      H1272   1.084       .  S
C1260      C1262   1.446       .  S
C1261      N1265   1.157       .  T
C1262      N1266   1.157       .  T
C1263      N1268   1.157       .  T
C1264      N1267   1.157       .  T
C1273      C1274   1.408       .  A
C1273      C1278   1.401       .  A
C1273      C1287   1.444       .  S
C1274      C1279   1.477   1_655  S
C1274      C1275   1.400       .  A
C1275      C1276   1.393       .  A
C1275      H1294   1.085   1_655  S
C1276      C1277   1.416       .  A
C1276      C1288   1.445       .  S
C1277      C1278   1.408       .  A
C1278      H1293   1.084       .  S
C1279      C1280   1.406       .  A
C1279      C1284   1.410       .  A
C1280      C1281   1.400       .  A
C1280      H1295   1.084       .  S
C1281      C1282   1.407       .  A
C1281      C1285   1.444       .  S
C1282      C1283   1.400       .  A
C1283      C1284   1.391       .  A
C1283      H1296   1.086       .  S
C1284      C1286   1.444       .  S
C1285      N1289   1.157       .  T
C1286      N1290   1.157       .  T
C1287      N1292   1.157       .  T
C1288      N1291   1.157       .  T
C1297      C1298   1.409       .  A
C1297      C1302   1.403       .  A
C1297      C1311   1.444       .  S
C1298      C1303   1.491       .  S
C1298      C1299   1.403       .  A
C1299      C1300   1.405       .  A
C1299      H1318   1.085       .  S
C1300      C1301   1.417       .  A
C1300      C1312   1.443       .  S
C1301      C1302   1.409       .  A
C1302      H1317   1.085       .  S
C1303      C1304   1.402       .  A
C1303      C1308   1.410       .  A
C1304      C1305   1.400       .  A
C1304      H1319   1.085       .  S
C1305      C1306   1.416       .  A
C1305      C1309   1.444       .  S
C1306      C1307   1.409       .  A
C1307      C1308   1.407       .  A
C1307      H1320   1.085       .  S
C1308      C1310   1.443       .  S
C1309      N1313   1.157       .  T
C1310      N1314   1.157       .  T
C1311      N1316   1.157       .  T
C1312      N1315   1.157       .  T
C1321      C1322   1.414       .  A
C1321      C1326   1.407       .  A
C1321      C1335   1.444       .  S
C1322      C1327   1.491       .  S
C1322      C1323   1.401       .  A
C1323      C1324   1.403       .  A
C1323      H1342   1.085       .  S
C1324      C1325   1.415       .  A
C1324      C1336   1.444       .  S
C1325      C1326   1.404       .  A
C1326      H1341   1.085       .  S
C1327      C1328   1.409       .  A
C1327      C1332   1.403       .  A
C1328      C1329   1.413       .  A
C1328      H1343   1.084       .  S
C1329      C1330   1.416       .  A
C1329      C1333   1.442       .  S
C1330      C1331   1.416       .  A
C1331      C1332   1.396       .  A
C1331      H1344   1.084       .  S
C1332      C1334   1.445       .  S
C1333      N1337   1.157       .  T
C1334      N1338   1.157       .  T
C1335      N1340   1.157       .  T
C1336      N1339   1.157       .  T
C1345      C1346   1.408       .  A
C1345      C1350   1.404       .  A
C1345      C1359   1.443       .  S
C1346      C1351   1.485       .  S
C1346      C1347   1.400       .  A
C1347      C1348   1.402       .  A
C1347      H1366   1.085       .  S
C1348      C1349   1.419       .  A
C1348      C1360   1.445       .  S
C1349      C1350   1.408       .  A
C1350      H1365   1.084       .  S
C1351      C1352   1.402       .  A
C1351      C1356   1.408       .  A
C1352      C1353   1.406   1_455  A
C1352      H1367   1.084       .  S
C1353      C1354   1.415       .  A
C1353      C1357   1.443       .  S
C1354      C1355   1.408   1_655  A
C1355      C1356   1.400       .  A
C1355      H1368   1.085       .  S
C1356      C1358   1.445       .  S
C1357      N1361   1.157       .  T
C1358      N1362   1.157       .  T
C1359      N1364   1.157       .  T
C1360      N1363   1.157       .  T
C1369      C1370   1.413       .  A
C1369      C1374   1.401       .  A
C1369      C1383   1.444       .  S
C1370      C1375   1.493       .  S
C1370      C1371   1.404       .  A
C1371      C1372   1.405       .  A
C1371      H1390   1.085       .  S
C1372      C1373   1.416       .  A
C1372      C1384   1.444       .  S
C1373      C1374   1.403       .  A
C1374      H1389   1.085       .  S
C1375      C1376   1.402       .  A
C1375      C1380   1.413       .  A
C1376      C1377   1.403       .  A
C1376      H1391   1.085       .  S
C1377      C1378   1.418       .  A
C1377      C1381   1.444       .  S
C1378      C1379   1.405       .  A
C1379      C1380   1.405       .  A
C1379      H1392   1.085       .  S
C1380      C1382   1.443       .  S
C1381      N1385   1.157       .  T
C1382      N1386   1.157       .  T
C1383      N1388   1.157       .  T
C1384      N1387   1.157       .  T
C1393      C1394   1.412       .  A
C1393      C1398   1.406       .  A
C1393      C1407   1.444       .  S
C1394      C1399   1.488       .  S
C1394      C1395   1.400       .  A
C1395      C1396   1.400       .  A
C1395      H1414   1.085   1_554  S
C1396      C1397   1.417       .  A
C1396      C1408   1.443       .  S
C1397      C1398   1.408       .  A
C1398      H1413   1.085       .  S
C1399      C1400   1.403   1_554  A
C1399      C1404   1.411       .  A
C1400      C1401   1.405       .  A
C1400      H1415   1.085       .  S
C1401      C1402   1.415       .  A
C1401      C1405   1.443       .  S
C1402      C1403   1.406   1_556  A
C1403      C1404   1.399       .  A
C1403      H1416   1.085       .  S
C1404      C1406   1.445       .  S
C1405      N1409   1.157       .  T
C1406      N1410   1.157       .  T
C1407      N1412   1.157       .  T
C1408      N1411   1.157       .  T
C1417      C1418   1.410       .  A
C1417      C1422   1.404       .  A
C1417      C1431   1.444       .  S
C1418      C1423   1.486       .  S
C1418      C1419   1.401       .  A
C1419      C1420   1.396       .  A
C1419      H1438   1.085       .  S
C1420      C1421   1.417       .  A
C1420      C1432   1.444       .  S
C1421      C1422   1.409       .  A
C1422      H1437   1.084       .  S
C1423      C1424   1.403       .  A
C1423      C1428   1.412       .  A
C1424      C1425   1.398       .  A
C1424      H1439   1.085       .  S
C1425      C1426   1.415       .  A
C1425      C1429   1.446       .  S
C1426      C1427   1.404       .  A
C1427      C1428   1.402       .  A
C1427      H1440   1.085       .  S
C1428      C1430   1.443       .  S
C1429      N1433   1.157       .  T
C1430      N1434   1.157       .  T
C1431      N1436   1.157       .  T
C1432      N1435   1.157       .  T
C1441      C1442   1.411       .  A
C1441      C1446   1.403       .  A
C1441      C1455   1.443       .  S
C1442      C1447   1.491       .  S
C1442      C1443   1.403       .  A
C1443      C1444   1.405       .  A
C1443      H1462   1.085       .  S
C1444      C1445   1.415       .  A
C1444      C1456   1.444       .  S
C1445      C1446   1.404       .  A
C1446      H1461   1.085       .  S
C1447      C1448   1.402       .  A
C1447      C1452   1.407       .  A
C1448      C1449   1.409       .  A
C1448      H1463   1.085       .  S
C1449      C1450   1.422       .  A
C1449      C1453   1.442       .  S
C1450      C1451   1.411       .  A
C1451      C1452   1.402       .  A
C1451      H1464   1.084       .  S
C1452      C1454   1.444       .  S
C1453      N1457   1.157       .  T
C1454      N1458   1.157       .  T
C1455      N1460   1.157       .  T
C1456      N1459   1.157       .  T
C1465      C1466   1.411       .  A
C1465      C1470   1.406       .  A
C1465      C1479   1.443       .  S
C1466      C1471   1.490       .  S
C1466      C1467   1.399       .  A
C1467      C1468   1.400       .  A
C1467      H1486   1.085       .  S
C1468      C1469   1.423       .  A
C1468      C1480   1.444       .  S
C1469      C1470   1.409       .  A
C1470      H1485   1.084       .  S
C1471      C1472   1.404       .  A
C1471      C1476   1.412       .  A
C1472      C1473   1.402       .  A
C1472      H1487   1.085       .  S
C1473      C1474   1.411       .  A
C1473      C1477   1.444       .  S
C1474      C1475   1.405       .  A
C1475      C1476   1.405       .  A
C1475      H1488   1.085       .  S
C1476      C1478   1.444       .  S
C1477      N1481   1.157       .  T
C1478      N1482   1.157       .  T
C1479      N1484   1.157       .  T
C1480      N1483   1.157       .  T
C1489      C1490   1.416       .  A
C1489      C1494   1.408       .  A
C1489      C1503   1.443       .  S
C1490      C1495   1.494       .  S
C1490      C1491   1.403       .  A
C1491      C1492   1.399       .  A
C1491      H1510   1.085       .  S
C1492      C1493   1.413       .  A
C1492      C1504   1.445       .  S
C1493      C1494   1.404       .  A
C1494      H1509   1.085       .  S
C1495      C1496   1.402       .  A
C1495      C1500   1.417       .  A
C1496      C1497   1.397       .  A
C1496      H1511   1.085       .  S
C1497      C1498   1.415       .  A
C1497      C1501   1.445       .  S
C1498      C1499   1.403       .  A
C1499      C1500   1.408       .  A
C1499      H1512   1.085       .  S
C1500      C1502   1.443       .  S
C1501      N1505   1.157       .  T
C1502      N1506   1.157       .  T
C1503      N1508   1.157       .  T
C1504      N1507   1.157       .  T
C1513      C1514   1.408   1_455  A
C1513      C1518   1.397   1_455  A
C1513      C1527   1.444       .  S
C1514      C1519   1.479   1_655  S
C1514      C1515   1.405       .  A
C1515      C1516   1.403       .  A
C1515      H1534   1.085       .  S
C1516      C1517   1.409       .  A
C1516      C1528   1.444       .  S
C1517      C1518   1.402       .  A
C1518      H1533   1.085   1_655  S
C1519      C1520   1.401       .  A
C1519      C1524   1.407       .  A
C1520      C1521   1.395       .  A
C1520      H1535   1.085       .  S
C1521      C1522   1.413       .  A
C1521      C1525   1.445       .  S
C1522      C1523   1.408       .  A
C1523      C1524   1.401       .  A
C1523      H1536   1.085       .  S
C1524      C1526   1.443       .  S
C1525      N1529   1.157       .  T
C1526      N1530   1.157       .  T
C1527      N1532   1.157       .  T
C1528      N1531   1.157       .  T
C1537      C1538   1.409       .  A
C1537      C1542   1.402       .  A
C1537      C1551   1.444       .  S
C1538      C1543   1.487       .  S
C1538      C1539   1.401       .  A
C1539      C1540   1.401       .  A
C1539      H1558   1.085       .  S
C1540      C1541   1.417       .  A
C1540      C1552   1.444       .  S
C1541      C1542   1.409       .  A
C1542      H1557   1.085       .  S
C1543      C1544   1.401       .  A
C1543      C1548   1.410       .  A
C1544      C1545   1.397       .  A
C1544      H1559   1.085       .  S
C1545      C1546   1.414   1_545  A
C1545      C1549   1.444       .  S
C1546      C1547   1.407       .  A
C1547      C1548   1.406   1_565  A
C1547      H1560   1.085       .  S
C1548      C1550   1.443       .  S
C1549      N1553   1.157       .  T
C1550      N1554   1.157       .  T
C1551      N1556   1.157       .  T
C1552      N1555   1.157       .  T
C1561      C1562   1.412       .  A
C1561      C1566   1.397       .  A
C1561      C1575   1.445       .  S
C1562      C1567   1.494       .  S
C1562      C1563   1.405       .  A
C1563      C1564   1.403       .  A
C1563      H1582   1.085       .  S
C1564      C1565   1.419       .  A
C1564      C1576   1.444       .  S
C1565      C1566   1.409       .  A
C1566      H1581   1.085       .  S
C1567      C1568   1.407   1_455  A
C1567      C1572   1.414       .  A
C1568      C1569   1.402       .  A
C1568      H1583   1.084       .  S
C1569      C1570   1.410       .  A
C1569      C1573   1.445       .  S
C1570      C1571   1.402   1_655  A
C1571      C1572   1.400       .  A
C1571      H1584   1.085       .  S
C1572      C1574   1.445       .  S
C1573      N1577   1.157       .  T
C1574      N1578   1.157       .  T
C1575      N1580   1.157       .  T
C1576      N1579   1.157       .  T
C1585      C1586   1.412       .  A
C1585      C1590   1.397       .  A
C1585      C1599   1.444       .  S
C1586      C1591   1.490   1_455  S
C1586      C1587   1.404       .  A
C1587      C1588   1.404       .  A
C1587      H1606   1.085   1_455  S
C1588      C1589   1.417       .  A
C1588      C1600   1.444       .  S
C1589      C1590   1.402       .  A
C1590      H1605   1.085       .  S
C1591      C1592   1.405       .  A
C1591      C1596   1.411       .  A
C1592      C1593   1.399       .  A
C1592      H1607   1.085       .  S
C1593      C1594   1.412       .  A
C1593      C1597   1.445       .  S
C1594      C1595   1.407       .  A
C1595      C1596   1.404       .  A
C1595      H1608   1.085       .  S
C1596      C1598   1.443   1_655  S
C1597      N1601   1.158       .  T
C1598      N1602   1.157       .  T
C1599      N1604   1.157       .  T
C1600      N1603   1.157       .  T
C1609      C1610   1.411       .  A
C1609      C1614   1.401   1_655  A
C1609      C1623   1.444       .  S
C1610      C1615   1.487       .  S
C1610      C1611   1.404   1_655  A
C1611      C1612   1.402       .  A
C1611      H1630   1.085       .  S
C1612      C1613   1.414       .  A
C1612      C1624   1.444       .  S
C1613      C1614   1.404       .  A
C1614      H1629   1.085   1_455  S
C1615      C1616   1.401       .  A
C1615      C1620   1.410       .  A
C1616      C1617   1.398       .  A
C1616      H1631   1.085       .  S
C1617      C1618   1.419       .  A
C1617      C1621   1.445       .  S
C1618      C1619   1.408       .  A
C1619      C1620   1.402       .  A
C1619      H1632   1.085       .  S
C1620      C1622   1.444       .  S
C1621      N1625   1.157       .  T
C1622      N1626   1.157       .  T
C1623      N1628   1.157       .  T
C1624      N1627   1.157       .  T
C1633      C1634   1.414       .  A
C1633      C1638   1.410       .  A
C1633      C1647   1.443       .  S
C1634      C1639   1.501       .  S
C1634      C1635   1.404       .  A
C1635      C1636   1.405       .  A
C1635      H1654   1.085       .  S
C1636      C1637   1.416       .  A
C1636      C1648   1.443       .  S
C1637      C1638   1.408       .  A
C1638      H1653   1.085       .  S
C1639      C1640   1.404       .  A
C1639      C1644   1.413       .  A
C1640      C1641   1.408       .  A
C1640      H1655   1.085       .  S
C1641      C1642   1.419       .  A
C1641      C1645   1.444       .  S
C1642      C1643   1.407       .  A
C1643      C1644   1.409       .  A
C1643      H1656   1.084       .  S
C1644      C1646   1.443       .  S
C1645      N1649   1.157       .  T
C1646      N1650   1.157       .  T
C1647      N1652   1.157       .  T
C1648      N1651   1.157       .  T
C1657      C1658   1.408       .  A
C1657      C1662   1.396   1_554  A
C1657      C1671   1.444   1_455  S
C1658      C1663   1.491   1_445  S
C1658      C1659   1.409   1_544  A
C1659      C1660   1.410       .  A
C1659      H1678   1.084       .  S
C1660      C1661   1.413   1_565  A
C1660      C1672   1.443       .  S
C1661      C1662   1.407       .  A
C1662      H1677   1.085       .  S
C1663      C1664   1.406       .  A
C1663      C1668   1.411       .  A
C1664      C1665   1.407       .  A
C1664      H1679   1.084   1_554  S
C1665      C1666   1.412       .  A
C1665      C1669   1.444       .  S
C1666      C1667   1.405       .  A
C1667      C1668   1.401       .  A
C1667      H1680   1.085       .  S
C1668      C1670   1.444   1_665  S
C1669      N1673   1.157       .  T
C1670      N1674   1.157       .  T
C1671      N1676   1.157       .  T
C1672      N1675   1.157       .  T
C1681      C1682   1.404       .  A
C1681      C1686   1.392       .  A
C1681      C1695   1.446       .  S
C1682      C1687   1.479       .  S
C1682      C1683   1.402       .  A
C1683      C1684   1.407       .  A
C1683      H1702   1.085       .  S
C1684      C1685   1.419       .  A
C1684      C1696   1.443       .  S
C1685      C1686   1.411       .  A
C1686      H1701   1.083       .  S
C1687      C1688   1.399       .  A
C1687      C1692   1.407       .  A
C1688      C1689   1.402       .  A
C1688      H1703   1.085       .  S
C1689      C1690   1.419       .  A
C1689      C1693   1.444       .  S
C1690      C1691   1.406       .  A
C1691      C1692   1.398       .  A
C1691      H1704   1.085       .  S
C1692      C1694   1.444       .  S
C1693      N1697   1.157       .  T
C1694      N1698   1.157       .  T
C1695      N1700   1.157       .  T
C1696      N1699   1.157       .  T
C1705      C1706   1.415   1_556  A
C1705      C1710   1.407       .  A
C1705      C1719   1.443       .  S
C1706      C1711   1.498       .  S
C1706      C1707   1.404       .  A
C1707      C1708   1.402   1_554  A
C1707      H1726   1.085       .  S
C1708      C1709   1.416       .  A
C1708      C1720   1.444   1_556  S
C1709      C1710   1.408       .  A
C1710      H1725   1.085       .  S
C1711      C1712   1.403       .  A
C1711      C1716   1.411       .  A
C1712      C1713   1.401       .  A
C1712      H1727   1.085   1_554  S
C1713      C1714   1.418       .  A
C1713      C1717   1.444       .  S
C1714      C1715   1.412       .  A
C1715      C1716   1.412       .  A
C1715      H1728   1.084       .  S
C1716      C1718   1.443       .  S
C1717      N1721   1.157       .  T
C1718      N1722   1.157       .  T
C1719      N1724   1.157       .  T
C1720      N1723   1.157       .  T
C1729      C1730   1.411       .  A
C1729      C1734   1.400       .  A
C1729      C1743   1.445   1_655  S
C1730      C1735   1.485   1_655  S
C1730      C1731   1.402       .  A
C1731      C1732   1.402       .  A
C1731      H1750   1.085       .  S
C1732      C1733   1.413       .  A
C1732      C1744   1.444       .  S
C1733      C1734   1.405       .  A
C1734      H1749   1.085       .  S
C1735      C1736   1.403       .  A
C1735      C1740   1.410       .  A
C1736      C1737   1.399       .  A
C1736      H1751   1.085       .  S
C1737      C1738   1.412       .  A
C1737      C1741   1.445       .  S
C1738      C1739   1.405       .  A
C1739      C1740   1.401       .  A
C1739      H1752   1.085       .  S
C1740      C1742   1.443       .  S
C1741      N1745   1.157       .  T
C1742      N1746   1.157       .  T
C1743      N1748   1.157       .  T
C1744      N1747   1.157       .  T
C1753      C1754   1.411       .  A
C1753      C1758   1.400       .  A
C1753      C1767   1.445       .  S
C1754      C1759   1.502       .  S
C1754      C1755   1.409       .  A
C1755      C1756   1.413       .  A
C1755      H1774   1.084       .  S
C1756      C1757   1.418       .  A
C1756      C1768   1.443       .  S
C1757      C1758   1.410       .  A
C1758      H1773   1.085       .  S
C1759      C1760   1.405       .  A
C1759      C1764   1.409       .  A
C1760      C1761   1.409       .  A
C1760      H1775   1.085       .  S
C1761      C1762   1.421       .  A
C1761      C1765   1.441       .  S
C1762      C1763   1.414       .  A
C1763      C1764   1.405       .  A
C1763      H1776   1.084       .  S
C1764      C1766   1.444       .  S
C1765      N1769   1.157       .  T
C1766      N1770   1.157       .  T
C1767      N1772   1.157       .  T
C1768      N1771   1.157       .  T
C1777      C1778   1.407       .  A
C1777      C1782   1.395       .  A
C1777      C1791   1.446       .  S
C1778      C1783   1.481       .  S
C1778      C1779   1.403       .  A
C1779      C1780   1.406       .  A
C1779      H1798   1.084       .  S
C1780      C1781   1.417       .  A
C1780      C1792   1.443       .  S
C1781      C1782   1.409       .  A
C1782      H1797   1.084       .  S
C1783      C1784   1.399       .  A
C1783      C1788   1.407       .  A
C1784      C1785   1.398       .  A
C1784      H1799   1.085       .  S
C1785      C1786   1.420       .  A
C1785      C1789   1.444       .  S
C1786      C1787   1.411       .  A
C1787      C1788   1.402       .  A
C1787      H1800   1.084       .  S
C1788      C1790   1.444       .  S
C1789      N1793   1.157       .  T
C1790      N1794   1.157       .  T
C1791      N1796   1.157       .  T
C1792      N1795   1.157       .  T
C1801      C1802   1.411       .  A
C1801      C1806   1.404       .  A
C1801      C1815   1.444       .  S
C1802      C1807   1.490       .  S
C1802      C1803   1.404       .  A
C1803      C1804   1.399       .  A
C1803      H1822   1.085       .  S
C1804      C1805   1.414       .  A
C1804      C1816   1.445       .  S
C1805      C1806   1.406       .  A
C1806      H1821   1.085       .  S
C1807      C1808   1.404       .  A
C1807      C1812   1.411   1_655  A
C1808      C1809   1.404   1_655  A
C1808      H1823   1.085       .  S
C1809      C1810   1.414       .  A
C1809      C1813   1.443   1_455  S
C1810      C1811   1.404       .  A
C1811      C1812   1.399       .  A
C1811      H1824   1.082       .  S
C1812      C1814   1.444       .  S
C1813      N1817   1.157       .  T
C1814      N1818   1.157       .  T
C1815      N1820   1.157       .  T
C1816      N1819   1.157       .  T
C1825      C1826   1.412       .  A
C1825      C1830   1.401       .  A
C1825      C1839   1.444       .  S
C1826      C1831   1.490       .  S
C1826      C1827   1.405       .  A
C1827      C1828   1.405       .  A
C1827      H1846   1.085       .  S
C1828      C1829   1.413       .  A
C1828      C1840   1.444       .  S
C1829      C1830   1.405       .  A
C1830      H1845   1.085       .  S
C1831      C1832   1.403       .  A
C1831      C1836   1.410       .  A
C1832      C1833   1.403       .  A
C1832      H1847   1.085       .  S
C1833      C1834   1.416       .  A
C1833      C1837   1.444       .  S
C1834      C1835   1.407       .  A
C1835      C1836   1.405       .  A
C1835      H1848   1.085       .  S
C1836      C1838   1.443       .  S
C1837      N1841   1.157       .  T
C1838      N1842   1.157       .  T
C1839      N1844   1.157       .  T
C1840      N1843   1.157       .  T
C1849      C1850   1.413       .  A
C1849      C1854   1.397       .  A
C1849      C1863   1.444       .  S
C1850      C1855   1.494       .  S
C1850      C1851   1.410       .  A
C1851      C1852   1.406       .  A
C1851      H1870   1.084       .  S
C1852      C1853   1.409       .  A
C1852      C1864   1.443       .  S
C1853      C1854   1.403       .  A
C1854      H1869   1.085       .  S
C1855      C1856   1.406       .  A
C1855      C1860   1.413       .  A
C1856      C1857   1.400       .  A
C1856      H1871   1.084       .  S
C1857      C1858   1.414       .  A
C1857      C1861   1.446       .  S
C1858      C1859   1.406       .  A
C1859      C1860   1.403       .  A
C1859      H1872   1.085       .  S
C1860      C1862   1.443       .  S
C1861      N1865   1.158   1_556  T
C1862      N1866   1.157       .  T
C1863      N1868   1.157       .  T
C1864      N1867   1.157       .  T
C1873      C1874   1.409       .  A
C1873      C1878   1.403       .  A
C1873      C1887   1.445       .  S
C1874      C1879   1.480       .  S
C1874      C1875   1.400       .  A
C1875      C1876   1.398       .  A
C1875      H1894   1.085       .  S
C1876      C1877   1.412       .  A
C1876      C1888   1.444       .  S
C1877      C1878   1.407       .  A
C1878      H1893   1.085       .  S
C1879      C1880   1.403       .  A
C1879      C1884   1.413       .  A
C1880      C1881   1.400       .  A
C1880      H1895   1.085       .  S
C1881      C1882   1.408       .  A
C1881      C1885   1.444       .  S
C1882      C1883   1.399       .  A
C1883      C1884   1.398       .  A
C1883      H1896   1.085       .  S
C1884      C1886   1.444       .  S
C1885      N1889   1.157       .  T
C1886      N1890   1.157       .  T
C1887      N1892   1.157       .  T
C1888      N1891   1.157       .  T
C1897      C1898   1.413       .  A
C1897      C1902   1.407       .  A
C1897      C1911   1.443       .  S
C1898      C1903   1.497       .  S
C1898      C1899   1.404       .  A
C1899      C1900   1.407       .  A
C1899      H1918   1.084   1_554  S
C1900      C1901   1.416       .  A
C1900      C1912   1.444       .  S
C1901      C1902   1.405       .  A
C1902      H1917   1.085       .  S
C1903      C1904   1.405   1_554  A
C1903      C1908   1.410       .  A
C1904      C1905   1.412       .  A
C1904      H1919   1.084       .  S
C1905      C1906   1.418       .  A
C1905      C1909   1.443       .  S
C1906      C1907   1.408   1_556  A
C1907      C1908   1.403       .  A
C1907      H1920   1.085       .  S
C1908      C1910   1.444       .  S
C1909      N1913   1.157       .  T
C1910      N1914   1.157       .  T
C1911      N1916   1.157       .  T
C1912      N1915   1.157       .  T
C1921      C1922   1.414       .  A
C1921      C1926   1.408       .  A
C1921      C1935   1.443       .  S
C1922      C1927   1.491       .  S
C1922      C1923   1.401       .  A
C1923      C1924   1.400       .  A
C1923      H1942   1.085       .  S
C1924      C1925   1.416       .  A
C1924      C1936   1.445       .  S
C1925      C1926   1.405       .  A
C1926      H1941   1.084       .  S
C1927      C1928   1.400       .  A
C1927      C1932   1.413       .  A
C1928      C1929   1.401       .  A
C1928      H1943   1.085       .  S
C1929      C1930   1.418       .  A
C1929      C1933   1.444       .  S
C1930      C1931   1.404       .  A
C1931      C1932   1.406       .  A
C1931      H1944   1.085       .  S
C1932      C1934   1.442       .  S
C1933      N1937   1.157       .  T
C1934      N1938   1.157       .  T
C1935      N1940   1.157       .  T
C1936      N1939   1.157       .  T
C1945      C1946   1.412       .  A
C1945      C1950   1.397       .  A
C1945      C1959   1.444       .  S
C1946      C1951   1.487       .  S
C1946      C1947   1.404       .  A
C1947      C1948   1.402       .  A
C1947      H1966   1.085       .  S
C1948      C1949   1.412       .  A
C1948      C1960   1.444       .  S
C1949      C1950   1.402       .  A
C1950      H1965   1.085       .  S
C1951      C1952   1.405       .  A
C1951      C1956   1.410       .  A
C1952      C1953   1.399       .  A
C1952      H1967   1.085       .  S
C1953      C1954   1.413       .  A
C1953      C1957   1.446       .  S
C1954      C1955   1.406       .  A
C1955      C1956   1.402       .  A
C1955      H1968   1.085       .  S
C1956      C1958   1.443       .  S
C1957      N1961   1.158       .  T
C1958      N1962   1.157       .  T
C1959      N1964   1.157       .  T
C1960      N1963   1.157       .  T
C1969      C1970   1.411       .  A
C1969      C1974   1.406       .  A
C1969      C1983   1.443       .  S
C1970      C1975   1.498       .  S
C1970      C1971   1.403       .  A
C1971      C1972   1.408       .  A
C1971      H1990   1.085       .  S
C1972      C1973   1.420       .  A
C1972      C1984   1.443       .  S
C1973      C1974   1.410       .  A
C1974      H1989   1.085       .  S
C1975      C1976   1.405       .  A
C1975      C1980   1.411       .  A
C1976      C1977   1.411   1_545  A
C1976      H1991   1.084       .  S
C1977      C1978   1.418       .  A
C1977      C1981   1.443       .  S
C1978      C1979   1.408       .  A
C1979      C1980   1.402   1_565  A
C1979      H1992   1.085       .  S
C1980      C1982   1.444       .  S
C1981      N1985   1.157       .  T
C1982      N1986   1.157       .  T
C1983      N1988   1.157       .  T
C1984      N1987   1.157       .  T
C1993      C1994   1.412       .  A
C1993      C1998   1.402       .  A
C1993      C2007   1.444       .  S
C1994      C1999   1.487       .  S
C1994      C1995   1.403       .  A
C1995      C1996   1.400       .  A
C1995      H2014   1.085       .  S
C1996      C1997   1.414       .  A
C1996      C2008   1.445       .  S
C1997      C1998   1.404       .  A
C1998      H2013   1.085       .  S
C1999      C2000   1.406       .  A
C1999      C2004   1.412       .  A
C2000      C2001   1.403       .  A
C2000      H2015   1.085       .  S
C2001      C2002   1.411       .  A
C2001      C2005   1.444       .  S
C2002      C2003   1.404       .  A
C2003      C2004   1.397       .  A
C2003      H2016   1.085       .  S
C2004      C2006   1.444       .  S
C2005      N2009   1.157       .  T
C2006      N2010   1.157       .  T
C2007      N2012   1.157       .  T
C2008      N2011   1.157       .  T
C2017      C2018   1.406       .  A
C2017      C2022   1.400       .  A
C2017      C2031   1.443       .  S
C2018      C2023   1.482       .  S
C2018      C2019   1.401       .  A
C2019      C2020   1.399       .  A
C2019      H2038   1.085       .  S
C2020      C2021   1.418       .  A
C2020      C2032   1.445       .  S
C2021      C2022   1.408       .  A
C2022      H2037   1.084       .  S
C2023      C2024   1.401       .  A
C2023      C2028   1.410       .  A
C2024      C2025   1.400       .  A
C2024      H2039   1.085       .  S
C2025      C2026   1.412       .  A
C2025      C2029   1.444       .  S
C2026      C2027   1.403       .  A
C2027      C2028   1.402       .  A
C2027      H2040   1.084       .  S
C2028      C2030   1.444       .  S
C2029      N2033   1.157       .  T
C2030      N2034   1.157       .  T
C2031      N2036   1.157       .  T
C2032      N2035   1.158       .  T
C2041      C2042   1.409       .  A
C2041      C2046   1.407       .  A
C2041      C2055   1.442       .  S
C2042      C2047   1.489       .  S
C2042      C2043   1.400       .  A
C2043      C2044   1.400       .  A
C2043      H2062   1.085       .  S
C2044      C2045   1.419       .  A
C2044      C2056   1.444       .  S
C2045      C2046   1.408       .  A
C2046      H2061   1.084       .  S
C2047      C2048   1.402       .  A
C2047      C2052   1.412       .  A
C2048      C2049   1.402       .  A
C2048      H2063   1.085       .  S
C2049      C2050   1.415       .  A
C2049      C2053   1.444       .  S
C2050      C2051   1.407       .  A
C2051      C2052   1.404       .  A
C2051      H2064   1.085       .  S
C2052      C2054   1.444       .  S
C2053      N2057   1.157       .  T
C2054      N2058   1.157       .  T
C2055      N2060   1.157       .  T
C2056      N2059   1.157       .  T
C2065      C2066   1.410       .  A
C2065      C2070   1.401       .  A
C2065      C2079   1.444       .  S
C2066      C2071   1.479       .  S
C2066      C2067   1.400       .  A
C2067      C2068   1.399       .  A
C2067      H2086   1.085       .  S
C2068      C2069   1.412       .  A
C2068      C2080   1.444       .  S
C2069      C2070   1.402       .  A
C2070      H2085   1.085       .  S
C2071      C2072   1.401       .  A
C2071      C2076   1.409       .  A
C2072      C2073   1.402       .  A
C2072      H2087   1.085       .  S
C2073      C2074   1.412       .  A
C2073      C2077   1.444       .  S
C2074      C2075   1.402       .  A
C2075      C2076   1.398       .  A
C2075      H2088   1.084       .  S
C2076      C2078   1.444       .  S
C2077      N2081   1.157       .  T
C2078      N2082   1.157       .  T
C2079      N2084   1.157       .  T
C2080      N2083   1.157       .  T
C2089      C2090   1.413       .  A
C2089      C2094   1.401       .  A
C2089      C2103   1.444       .  S
C2090      C2095   1.499       .  S
C2090      C2091   1.406       .  A
C2091      C2092   1.408       .  A
C2091      H2110   1.084       .  S
C2092      C2093   1.418       .  A
C2092      C2104   1.444   1_556  S
C2093      C2094   1.407       .  A
C2094      H2109   1.085       .  S
C2095      C2096   1.405       .  A
C2095      C2100   1.414       .  A
C2096      C2097   1.404       .  A
C2096      H2111   1.085       .  S
C2097      C2098   1.413       .  A
C2097      C2101   1.442       .  S
C2098      C2099   1.406       .  A
C2099      C2100   1.408       .  A
C2099      H2112   1.085       .  S
C2100      C2102   1.444       .  S
C2101      N2105   1.157       .  T
C2102      N2106   1.157       .  T
C2103      N2108   1.157       .  T
C2104      N2107   1.157       .  T
C2113      C2114   1.408       .  A
C2113      C2118   1.407       .  A
C2113      C2127   1.443       .  S
C2114      C2119   1.487       .  S
C2114      C2115   1.400       .  A
C2115      C2116   1.400       .  A
C2115      H2134   1.085       .  S
C2116      C2117   1.417       .  A
C2116      C2128   1.444       .  S
C2117      C2118   1.410       .  A
C2118      H2133   1.084       .  S
C2119      C2120   1.404       .  A
C2119      C2124   1.407       .  A
C2120      C2121   1.405       .  A
C2120      H2135   1.085       .  S
C2121      C2122   1.416       .  A
C2121      C2125   1.444       .  S
C2122      C2123   1.409       .  A
C2123      C2124   1.401       .  A
C2123      H2136   1.085       .  S
C2124      C2126   1.444       .  S
C2125      N2129   1.157       .  T
C2126      N2130   1.157       .  T
C2127      N2132   1.157       .  T
C2128      N2131   1.157       .  T
C2137      C2138   1.402   1_545  A
C2137      C2142   1.394       .  A
C2137      C2151   1.445       .  S
C2138      C2143   1.487       .  S
C2138      C2139   1.407       .  A
C2139      C2140   1.410       .  A
C2139      H2158   1.085       .  S
C2140      C2141   1.418   1_565  A
C2140      C2152   1.443       .  S
C2141      C2142   1.414       .  A
C2142      H2157   1.084       .  S
C2143      C2144   1.408       .  A
C2143      C2148   1.407       .  A
C2144      C2145   1.406       .  A
C2144      H2159   1.084   1_565  S
C2145      C2146   1.409       .  A
C2145      C2149   1.444       .  S
C2146      C2147   1.406       .  A
C2147      C2148   1.398       .  A
C2147      H2160   1.085       .  S
C2148      C2150   1.444       .  S
C2149      N2153   1.157       .  T
C2150      N2154   1.157       .  T
C2151      N2156   1.157       .  T
C2152      N2155   1.157       .  T
C2161      C2162   1.413       .  A
C2161      C2166   1.404       .  A
C2161      C2175   1.445       .  S
C2162      C2167   1.496       .  S
C2162      C2163   1.404       .  A
C2163      C2164   1.407       .  A
C2163      H2182   1.085       .  S
C2164      C2165   1.415       .  A
C2164      C2176   1.443       .  S
C2165      C2166   1.406       .  A
C2166      H2181   1.085       .  S
C2167      C2168   1.405       .  A
C2167      C2172   1.411       .  A
C2168      C2169   1.408       .  A
C2168      H2183   1.084       .  S
C2169      C2170   1.417       .  A
C2169      C2173   1.443       .  S
C2170      C2171   1.407       .  A
C2171      C2172   1.400       .  A
C2171      H2184   1.083       .  S
C2172      C2174   1.445       .  S
C2173      N2177   1.157       .  T
C2174      N2178   1.157       .  T
C2175      N2180   1.157       .  T
C2176      N2179   1.157       .  T
C2185      C2186   1.414       .  A
C2185      C2190   1.402       .  A
C2185      C2199   1.445       .  S
C2186      C2191   1.499       .  S
C2186      C2187   1.406       .  A
C2187      C2188   1.410       .  A
C2187      H2206   1.084       .  S
C2188      C2189   1.416       .  A
C2188      C2200   1.443       .  S
C2189      C2190   1.404       .  A
C2190      H2205   1.085       .  S
C2191      C2192   1.404       .  A
C2191      C2196   1.414       .  A
C2192      C2193   1.403       .  A
C2192      H2207   1.085       .  S
C2193      C2194   1.417       .  A
C2193      C2197   1.444       .  S
C2194      C2195   1.406       .  A
C2195      C2196   1.408       .  A
C2195      H2208   1.085       .  S
C2196      C2198   1.443       .  S
C2197      N2201   1.157       .  T
C2198      N2202   1.157       .  T
C2199      N2204   1.157       .  T
C2200      N2203   1.157       .  T
