geometry optimzed in LAMMPS
_audit_creation_date              2020-11-30 
_audit_creation_method            'lammps2cif' 
_symmetry_space_group_name_H-M    'P1' 
_symmetry_Int_Tables_number       1 
_symmetry_cell_setting            triclinic 
loop_ 
_symmetry_equiv_pos_as_xyz 
  x,y,z 
_cell_length_a                    51.857323794102186 
_cell_length_b                    51.00616964127003 
_cell_length_c                    45.6189743588444 
_cell_angle_alpha                 89.02750580287565 
_cell_angle_beta                  90.08657621676608 
_cell_angle_gamma                 90.00433123717345 
loop_ 
_atom_site_label 
_atom_site_type_symbol 
_atom_site_fract_x 
_atom_site_fract_y 
_atom_site_fract_z 
_atom_site_charge 
Zr1        Zr  0.14726291  0.77925723  0.13779383     2.17510
O2          O  0.16848098  0.81270989  0.10760227    -0.52170
O3          O  0.13960086  0.74802243  0.09911550    -0.75380
O4          O  0.19293007  0.76955206  0.13172619    -0.82160
O5          O  0.07964352  0.81172710  0.12982591    -0.83910
O6          O  0.20776362  0.74696953  0.17209657    -0.79530
O7          O  0.11764641  0.80695768  0.10574973    -0.91170
O8          O  0.14519789  0.71209033  0.12659485    -0.77130
O9          O  0.15708792  0.73826074  0.16295281    -0.86620
O10         O  0.10761999  0.75633578  0.14402038    -0.86310
O11         O  0.16781096  0.78742839  0.18471479    -0.73070
O12         O  0.12205950  0.80738381  0.16777026    -0.85200
Zr13       Zr  0.11102672  0.75628272  0.24505408     2.26420
Zr14       Zr  0.17526004  0.74599309  0.21059728     2.06270
Zr15       Zr  0.08236689  0.78386900  0.17373147     2.10050
Zr16       Zr  0.11746059  0.71600222  0.16864810     1.78760
O17         O  0.05249103  0.81887529  0.18584633    -0.94010
O18         O  0.13997734  0.67464250  0.17698640    -0.41810
O19         O  0.09284449  0.74421442  0.19865119    -0.78450
O20         O  0.13404390  0.72499221  0.21592704    -0.97130
O21         O  0.15192755  0.77648653  0.23993874    -0.90440
O22         O  0.10132461  0.79611002  0.21879508    -0.93280
C23         C  0.13903363  0.72308949  0.10242161     1.00470
C24         C  0.09435205  0.81643542  0.10769693     1.13400
C25         C  0.21056590  0.75738816  0.14643358     1.04180
O26         O  0.20854539  0.71240368  0.21377288    -0.95430
O27         O  0.16867418  0.71284302  0.25108898    -0.91180
O28         O  0.14224768  0.73661828  0.27846776    -0.84320
C29         C  0.15406329  0.71523560  0.27379873     1.10820
O30         O  0.17183795  0.84741578  0.18982493    -0.97410
Zr31       Zr  0.14253766  0.81642959  0.21383594     1.88940
O32         O  0.09994345  0.79379731  0.27532094    -0.74060
O33         O  0.20484467  0.77056115  0.24113528    -0.53320
O34         O  0.17794355  0.82485860  0.24755722    -0.98000
O35         O  0.12350928  0.85939489  0.20405983    -0.55220
O36         O  0.12147539  0.82962162  0.25880039    -0.74570
C37         C  0.10567448  0.81827036  0.27652495     0.97770
O38         O  0.09119901  0.73681071  0.28871579    -0.63390
O39         O  0.05114689  0.76503804  0.14003377    -0.58200
O40         O  0.06896194  0.73824454  0.24500853    -0.94880
O41         O  0.05206252  0.76183090  0.20701918    -0.93310
O42         O  0.08210742  0.70317284  0.13683520    -0.93660
O43         O  0.09067112  0.68043016  0.18777434    -0.92450
C44         C  0.05011465  0.74596226  0.22938325     1.16610
H45         H  0.09897996  0.75371658  0.12564735     0.32560
H46         H  0.13296853  0.70773910  0.22471727     0.43410
H47         H  0.08839709  0.80720769  0.22731013     0.36930
H48         H  0.18425445  0.79579173  0.18127093     0.33410
H49         H  0.13842019  0.66532006  0.15819831     0.25200
H50         H  0.21079123  0.75767707  0.25615423     0.31140
H51         H  0.17307350  0.84120248  0.25756358     0.37050
H52         H  0.08710884  0.68570185  0.12958584     0.31510
H53         H  0.05740568  0.76841821  0.11984025     0.30390
H54         H  0.06321247  0.83493486  0.18580402     0.32070
H55         H  0.12861275  0.87020725  0.22093573     0.31030
H56         H  0.08557698  0.68615719  0.20757589     0.35030
H57         H  0.09519765  0.71785830  0.28842653     0.27770
H58         H  0.17822203  0.80310523  0.09252959     0.32000
H59         H  0.17593121  0.86073857  0.20466565     0.34850
H60         H  0.05269896  0.74583695  0.14299342     0.27460
H61         H  0.10106210  0.74361498  0.30554021     0.40330
H62         H  0.20161320  0.69765386  0.20232315     0.30390
H63         H  0.15841118  0.67956846  0.17818999     0.38000
H64         H  0.10473227  0.85667156  0.20656312     0.29850
H65         H  0.22009693  0.77366685  0.22851470     0.29920
H66         H  0.18177283  0.82041070  0.12045526     0.30180
Zr67       Zr  0.87181930  0.79434033  0.13685833     2.17510
O68         O  0.84578141  0.76377681  0.10883073    -0.52170
O69         O  0.87662956  0.82391658  0.09488915    -0.75380
O70         O  0.82612884  0.80472059  0.13866712    -0.82160
O71         O  0.93901053  0.76138757  0.12058582    -0.83910
O72         O  0.81661080  0.82879986  0.17915017    -0.79530
O73         O  0.89683170  0.76084173  0.10697314    -0.91170
O74         O  0.87546389  0.86016068  0.12087376    -0.77130
O75         O  0.86721729  0.83634700  0.16055251    -0.86620
O76         O  0.91261543  0.81536708  0.13569869    -0.86310
O77         O  0.85662554  0.78873524  0.18713095    -0.73070
O78         O  0.89848255  0.76638702  0.16553354    -0.85200
Zr79       Zr  0.92219688  0.82014356  0.23660595     2.26420
Zr80       Zr  0.85434254  0.83089283  0.21101721     2.06270
Zr81       Zr  0.93960761  0.78727885  0.16362040     2.10050
Zr82       Zr  0.90803583  0.85688406  0.15859050     1.78760
O83         O  0.95109564  0.74205936  0.17684651    -0.94010
O84         O  0.88843838  0.89997324  0.16369305    -0.41810
O85         O  0.93566093  0.82874046  0.18678848    -0.78450
O86         O  0.89624866  0.85060582  0.20849380    -0.97130
O87         O  0.88027443  0.80112870  0.23941441    -0.90440
O88         O  0.92571109  0.77905788  0.21241944    -0.93280
C89         C  0.87885757  0.84878427  0.09666784     1.00470
C90         C  0.92074876  0.75292556  0.10452092     1.13400
C91         C  0.81060144  0.81744658  0.15511487     1.04180
O92         O  0.82501936  0.86803010  0.21373219    -0.95430
O93         O  0.86545562  0.86266965  0.25053139    -0.91180
O94         O  0.89994592  0.84472312  0.27394771    -0.84320
C95         C  0.88294615  0.86276508  0.27090083     1.10820
O96         O  0.85118164  0.72954450  0.19774145    -0.97410
Zr97       Zr  0.88380377  0.76010121  0.21508068     1.88940
O98         O  0.93010028  0.78416061  0.27250722    -0.74060
O99         O  0.82687499  0.80873445  0.24684050    -0.53320
O100        O  0.85202005  0.75589462  0.25413139    -0.98000
O101        O  0.89906039  0.71528510  0.20884038    -0.55220
O102        O  0.91008969  0.74734178  0.25650694    -0.74570
C103        C  0.92542771  0.75929954  0.27369464     0.97770
O104        O  0.94977920  0.85349044  0.25781104    -0.63390
O105        O  0.97163117  0.80111332  0.12699996    -0.58200
O106        O  0.96800713  0.81527715  0.23849118    -0.94880
O107        O  0.97259879  0.80917875  0.19134147    -0.93310
O108        O  0.94116090  0.86547077  0.12199658    -0.93660
O109        O  0.93600992  0.89321666  0.17173454    -0.92450
C110        C  0.97827880  0.80291166  0.21762203     1.16610
H111        H  0.91957471  0.81687161  0.11622813     0.32560
H112        H  0.89756147  0.86797652  0.21638282     0.43410
H113        H  0.93868148  0.76786467  0.22111059     0.36930
H114        H  0.83969206  0.78089916  0.18703825     0.33410
H115        H  0.88852156  0.90773662  0.14364443     0.25200
H116        H  0.81966409  0.82305752  0.25869939     0.31140
H117        H  0.85793806  0.74073079  0.26619684     0.37050
H118        H  0.93749757  0.88346703  0.11463019     0.31510
H119        H  0.96219509  0.80411272  0.10837190     0.30390
H120        H  0.93843385  0.73089473  0.16666146     0.32070
H121        H  0.89214448  0.70531031  0.22590409     0.31030
H122        H  0.94147962  0.88909379  0.19210291     0.35030
H123        H  0.94084537  0.87038066  0.25415572     0.27770
H124        H  0.83565223  0.77472737  0.09486623     0.32000
H125        H  0.84583726  0.71906436  0.21515836     0.34850
H126        H  0.97694537  0.81889423  0.13295829     0.27460
H127        H  0.94856344  0.85034669  0.27919302     0.40330
H128        H  0.83180152  0.88091774  0.19921893     0.30390
H129        H  0.87003535  0.89630625  0.16779231     0.38000
H130        H  0.91786705  0.71597175  0.21247236     0.29850
H131        H  0.81205804  0.80229085  0.23529459     0.29920
H132        H  0.83299561  0.75647206  0.12284793     0.30180
Zr133      Zr  0.02485614  0.64673870  0.48913318     2.17510
O134        O  0.99629516  0.61797044  0.51736273    -0.52170
O135        O  0.05302140  0.65598075  0.03048139    -0.75380
O136        O  0.04088468  0.60200604  0.49132137    -0.82160
O137        O  0.98559374  0.71185116  0.00138246    -0.83910
O138        O  0.06376472  0.59203656  0.45023283    -0.79530
O139        O  0.99081768  0.67047967  0.01966250    -0.91170
O140        O  0.08836689  0.65707420  0.00347567    -0.77130
O141        O  0.06669308  0.64552107  0.46544998    -0.86620
O142        O  0.04114920  0.69010501  0.48703777    -0.86310
O143        O  0.02136743  0.62875796  0.44002896    -0.73070
O144        O  0.99510180  0.66945981  0.45858323    -0.85200
Zr145      Zr  0.04644644  0.69648190  0.38639270     2.26420
Zr146      Zr  0.06323178  0.62962194  0.41618272     2.06270
Zr147      Zr  0.01119779  0.71331104  0.45785505     2.10050
Zr148      Zr  0.08249923  0.68903335  0.46444852     1.78760
O149        O  0.96581416  0.72006797  0.44500845    -0.94010
O150        O  0.12706696  0.67467789  0.45966044    -0.41810
O151        O  0.05258983  0.71344729  0.43484256    -0.78450
O152        O  0.07836757  0.67403297  0.41569352    -0.97130
O153        O  0.03220635  0.65201959  0.38615089    -0.90440
O154        O  0.00565122  0.69626735  0.41049481    -0.93280
C155        C  0.07716767  0.66032343  0.02785336     1.00470
C156        C  0.98021197  0.69377797  0.02007562     1.13400
C157        C  0.05435726  0.58636404  0.47570051     1.04180
O158        O  0.10337763  0.60490249  0.41645771    -0.95430
O159        O  0.09284362  0.64223174  0.37466674    -0.91180
O160        O  0.07332007  0.67594431  0.35012732    -0.84320
C161        C  0.09175209  0.65944236  0.35337204     1.10820
O162        O  0.96415257  0.61641268  0.42817058    -0.97410
Zr163      Zr  0.99119860  0.65224083  0.40991497     1.88940
O164        O  0.01261567  0.69888028  0.34873655    -0.74060
O165        O  0.04540689  0.59766181  0.38271725    -0.53320
O166        O  0.99158141  0.61914647  0.37206352    -0.98000
O167        O  0.94559896  0.66292815  0.41512129    -0.55220
O168        O  0.97732098  0.67793066  0.36738548    -0.74570
C169        C  0.98834793  0.69341082  0.34881945     0.97770
O170        O  0.07775440  0.72771558  0.36675377    -0.63390
O171        O  0.02428115  0.74633410  0.49351612    -0.58200
O172        O  0.02970286  0.73977825  0.37930617    -0.94880
O173        O  0.02640002  0.74841716  0.42643881    -0.93310
O174        O  0.08696308  0.72246201  0.50158882    -0.93660
O175        O  0.11392640  0.72233920  0.45019394    -0.92450
C176        C  0.01879097  0.75172455  0.40017467     1.16610
H177        H  0.04177407  0.69816104  0.50589420     0.32560
H178        H  0.09532182  0.67646645  0.40741463     0.43410
H179        H  0.99335008  0.70788531  0.40126429     0.36930
H180        H  0.01544863  0.61083088  0.44152413     0.33410
H181        H  0.13449695  0.67642174  0.47954653     0.25200
H182        H  0.06069040  0.58948450  0.37364680     0.31140
H183        H  0.97689345  0.62381399  0.35910097     0.37050
H184        H  0.10476406  0.72025956  0.50912738     0.31510
H185        H  0.03312072  0.76047751  0.48232842     0.30390
H186        H  0.95616694  0.70626389  0.45585288     0.32070
H187        H  0.93711270  0.65514795  0.39785900     0.31030
H188        H  0.11031967  0.72593382  0.42918503     0.35030
H189        H  0.09480660  0.71928492  0.36950690     0.27770
H190        H  0.00713732  0.61005829  0.03300522     0.32000
H191        H  0.95506345  0.60956607  0.41080147     0.34850
H192        H  0.00876081  0.75451921  0.50199653     0.27460
H193        H  0.07475572  0.72777128  0.34533555     0.40330
H194        H  0.11427563  0.61364169  0.43120624     0.30390
H195        H  0.12588255  0.65552786  0.45675970     0.38000
H196        H  0.94446940  0.68206921  0.41142403     0.29850
H197        H  0.03813866  0.58373432  0.39563640     0.29920
H198        H  0.99200138  0.60336531  0.50418576     0.30180
Zr199      Zr  0.99669097  0.92202014  0.48288147     2.17510
O200        O  0.02844085  0.94534018  0.51206334    -0.52170
O201        O  0.96680576  0.91140675  0.02230076    -0.75380
O202        O  0.98369428  0.96741303  0.49061103    -0.82160
O203        O  0.03103024  0.85460874  0.48923243    -0.83910
O204        O  0.96122831  0.98174969  0.45054988    -0.79530
O205        O  0.02597118  0.89307355  0.01340827    -0.91170
O206        O  0.93114748  0.91636908  0.49599321    -0.77130
O207        O  0.95623422  0.93129012  0.45828082    -0.86620
O208        O  0.97547069  0.88111818  0.47616428    -0.86310
O209        O  0.00445622  0.94424448  0.43615189    -0.73070
O210        O  0.02497022  0.89756681  0.45233818    -0.85200
Zr211      Zr  0.97621002  0.88701169  0.37543282     2.26420
Zr212      Zr  0.96359362  0.95086277  0.41067367     2.06270
Zr213      Zr  0.00308405  0.85656486  0.44600371     2.10050
Zr214      Zr  0.93561170  0.89051470  0.45255022     1.78760
O215        O  0.03755151  0.82671296  0.43223591    -0.94010
O216        O  0.89476942  0.91293269  0.44398876    -0.41810
O217        O  0.96424385  0.86736782  0.42175916    -0.78450
O218        O  0.94431266  0.90845868  0.40511829    -0.97130
O219        O  0.99472039  0.92899378  0.38095264    -0.90440
O220        O  0.01530849  0.87741591  0.40143194    -0.93280
C221        C  0.94233381  0.90959208  0.01963053     1.00470
C222        C  0.03595703  0.86971786  0.01108576     1.13400
C223        C  0.97069627  0.98494296  0.47627199     1.04180
O224        O  0.92995578  0.98400484  0.40629089    -0.95430
O225        O  0.93162386  0.94380870  0.37033875    -0.91180
O226        O  0.95728037  0.91966429  0.34276900    -0.84320
C227        C  0.93533850  0.92987841  0.34737785     1.10820
O228        O  0.06345238  0.94996752  0.43072812    -0.97410
Zr229      Zr  0.03400926  0.91983544  0.40667117     1.88940
O230        O  0.01372101  0.87617439  0.34559510    -0.74060
O231        O  0.98760967  0.98261836  0.38107986    -0.53320
O232        O  0.04248529  0.95630584  0.37286204    -0.98000
O233        O  0.07628767  0.90093080  0.41698380    -0.55220
O234        O  0.04807605  0.89962715  0.36145859    -0.74570
C235        C  0.03756427  0.88294735  0.34445316     0.97770
O236        O  0.95949440  0.86805338  0.33061841    -0.63390
O237        O  0.98639041  0.82360257  0.48035386    -0.58200
O238        O  0.95741531  0.84489843  0.37503416    -0.94880
O239        O  0.97965882  0.82675629  0.41314278    -0.93310
O240        O  0.92432727  0.85432549  0.48561777    -0.93660
O241        O  0.90184919  0.86140904  0.43521413    -0.92450
C242        C  0.96421719  0.82538204  0.39074196     1.16610
H243        H  0.97285782  0.87158268  0.49419614     0.32560
H244        H  0.92749173  0.90688154  0.39636646     0.43410
H245        H  0.02679836  0.86470638  0.39312691     0.36930
H246        H  0.01202708  0.96117777  0.43984930     0.33410
H247        H  0.88526115  0.91082969  0.46269138     0.25200
H248        H  0.97531683  0.99713711  0.37729705     0.31140
H249        H  0.05886190  0.95173613  0.36305342     0.37050
H250        H  0.90792433  0.85975876  0.49479763     0.31510
H251        H  0.99066264  0.82936263  0.50037200     0.30390
H252        H  0.03110338  0.81772975  0.41460159     0.32070
H253        H  0.08696286  0.90559262  0.39968639     0.31030
H254        H  0.90717925  0.85698654  0.41505535     0.35030
H255        H  0.94090243  0.87235231  0.32981606     0.27770
H256        H  0.01857991  0.95282312  0.02864162     0.32000
H257        H  0.07711171  0.95399441  0.41619201     0.34850
H258        H  0.96740143  0.82514318  0.47896727     0.27460
H259        H  0.96737314  0.87843135  0.31442733     0.40330
H260        H  0.91528687  0.97669995  0.41765333     0.30390
H261        H  0.89936806  0.93176601  0.44298019     0.38000
H262        H  0.07364563  0.88175980  0.41562744     0.29850
H263        H  0.00049229  0.99000948  0.39467454     0.29920
H264        H  0.03334977  0.96089137  0.50003473     0.30180
Zr265      Zr  0.64475645  0.79681793  0.11437833     2.17510
O266        O  0.66433919  0.76747125  0.15087062    -0.52170
O267        O  0.63855369  0.83295469  0.14824592    -0.75380
O268        O  0.69024361  0.80549120  0.12157205    -0.82160
O269        O  0.57808633  0.76255798  0.12132994    -0.83910
O270        O  0.70649251  0.82644324  0.08101976    -0.79530
O271        O  0.61533453  0.76926828  0.14627112    -0.91170
O272        O  0.64463477  0.86616143  0.11666668    -0.77130
O273        O  0.65483417  0.83613375  0.08665626    -0.86620
O274        O  0.60483901  0.81856741  0.10577237    -0.86310
O275        O  0.66689691  0.78528735  0.06939445    -0.73070
O276        O  0.62090792  0.76662384  0.08541593    -0.85200
Zr277      Zr  0.61236023  0.81291954  0.00437539     2.26420
Zr278      Zr  0.67516175  0.82532430  0.04120814     2.06270
Zr279      Zr  0.58110954  0.78910676  0.07629659     2.10050
Zr280      Zr  0.61485802  0.85722750  0.07799053     1.78760
O281        O  0.55283611  0.75250682  0.06495700    -0.94010
O282        O  0.63264673  0.90041326  0.06641801    -0.41810
O283        O  0.59189728  0.82733156  0.04865499    -0.78450
O284        O  0.63389201  0.84548272  0.03290235    -0.97130
O285        O  0.65298693  0.79309896  0.01295946    -0.90440
O286        O  0.60163661  0.77465631  0.03304402    -0.93280
C287        C  0.64027617  0.85759923  0.14244389     1.00470
C288        C  0.59243635  0.75901087  0.14410125     1.13400
C289        C  0.70834715  0.81715527  0.10731533     1.04180
O290        O  0.70862742  0.85866342  0.03731291    -0.95430
O291        O  0.66967252  0.85675881  0.99898175    -0.91180
O292        O  0.64518799  0.83132318  0.47220095    -0.84320
C293        C  0.65598357  0.85337261  0.47623105     1.10820
O294        O  0.67140819  0.72475444  0.06746294    -0.97410
Zr295      Zr  0.64252605  0.75457502  0.04096290     1.88940
O296        O  0.60092665  0.77459579  0.47707265    -0.74060
O297        O  0.70544285  0.79927764  0.01327853    -0.53320
O298        O  0.67827225  0.74450089  0.00843588    -0.98000
O299        O  0.62341667  0.71224721  0.05368375    -0.55220
O300        O  0.62157313  0.73882681  0.99644038    -0.74570
C301        C  0.60632162  0.75003601  0.47806916     0.97770
O302        O  0.60249756  0.83097876  0.95574665    -0.63390
O303        O  0.54784666  0.80816521  0.10707934    -0.58200
O304        O  0.57022897  0.83039813  0.00090230    -0.94880
O305        O  0.55203329  0.80904364  0.03967796    -0.93310
O306        O  0.58006192  0.86735587  0.11203228    -0.93660
O307        O  0.58712429  0.88985203  0.05429958    -0.92450
C308        C  0.55084489  0.82338123  0.01594573     1.16610
H309        H  0.59613808  0.82205364  0.12398063     0.32560
H310        H  0.63298409  0.86226676  0.02306713     0.43410
H311        H  0.58877895  0.76311833  0.02512985     0.36930
H312        H  0.68319914  0.77714179  0.07426989     0.33410
H313        H  0.63170964  0.91029483  0.08486636     0.25200
H314        H  0.71035357  0.81079923  0.99651257     0.31140
H315        H  0.67317938  0.72804382  0.99878162     0.37050
H316        H  0.57519825  0.88583385  0.10803311     0.31510
H317        H  0.55397486  0.80667615  0.12759420     0.30390
H318        H  0.56307358  0.73666618  0.06995005     0.32070
H319        H  0.62840921  0.70052641  0.03756444     0.31030
H320        H  0.58455812  0.88333688  0.03417658     0.35030
H321        H  0.58962698  0.81888608  0.94743640     0.27770
H322        H  0.67220038  0.77899540  0.16568323     0.32000
H323        H  0.67586674  0.71084492  0.05346444     0.34850
H324        H  0.54828363  0.82717528  0.10238947     0.27460
H325        H  0.59334740  0.84782111  0.95833526     0.40330
H326        H  0.70130117  0.87405721  0.04729875     0.30390
H327        H  0.65129639  0.89726712  0.06344251     0.38000
H328        H  0.60464318  0.71491215  0.05101761     0.29850
H329        H  0.72109767  0.79838796  0.02570833     0.29920
H330        H  0.67906158  0.75908290  0.14089326     0.30180
Zr331      Zr  0.37488030  0.77544129  0.11065679     2.17510
O332        O  0.35064171  0.80832378  0.13732142    -0.52170
O333        O  0.38013144  0.74597554  0.15244977    -0.75380
O334        O  0.32923317  0.76480289  0.11247575    -0.82160
O335        O  0.44366908  0.80504745  0.12182138    -0.83910
O336        O  0.31715547  0.74044167  0.07304064    -0.79530
O337        O  0.40316957  0.80749786  0.13994576    -0.91170
O338        O  0.37749853  0.70962918  0.12664299    -0.77130
O339        O  0.36861187  0.73299133  0.08818234    -0.86620
O340        O  0.41519602  0.75363917  0.10954405    -0.86310
O341        O  0.35678231  0.77983586  0.06135420    -0.73070
O342        O  0.40007421  0.80224070  0.07922843    -0.85200
Zr343      Zr  0.41937632  0.74755532  0.00781945     2.26420
Zr344      Zr  0.35306170  0.73720029  0.03852566     2.06270
Zr345      Zr  0.44076309  0.78042023  0.07866731     2.10050
Zr346      Zr  0.40914767  0.71190738  0.08790639     1.78760
O347        O  0.45088963  0.82597322  0.06508418    -0.94010
O348        O  0.38960018  0.66864346  0.08442469    -0.41810
O349        O  0.43546746  0.73883478  0.05666180    -0.78450
O350        O  0.39512155  0.71761466  0.03863354    -0.97130
O351        O  0.37732680  0.76646674  0.00776419    -0.90440
O352        O  0.42405390  0.78866272  0.03129230    -0.93280
C353        C  0.38166013  0.72105326  0.15070017     1.00470
C354        C  0.42763527  0.81421751  0.14008133     1.13400
C355        C  0.31262190  0.75200155  0.09739792     1.04180
O356        O  0.32448909  0.69936418  0.03843244    -0.95430
O357        O  0.36317536  0.70485959  0.99899179    -0.91180
O358        O  0.39289550  0.72612540  0.47207250    -0.84320
C359        C  0.37851210  0.70628517  0.47737746     1.10820
O360        O  0.35004434  0.83845557  0.04885721    -0.97410
Zr361      Zr  0.38228041  0.80787424  0.03082208     1.88940
O362        O  0.42595442  0.78347357  0.47156230    -0.74060
O363        O  0.32325468  0.75800829  0.00408526    -0.53320
O364        O  0.34914862  0.81063648  0.99299275    -0.98000
O365        O  0.39704698  0.85300995  0.03567449    -0.55220
O366        O  0.40720378  0.82029760  0.98815128    -0.74570
C367        C  0.42177363  0.80844461  0.47071091     0.97770
O368        O  0.44545947  0.71190416  0.98894818    -0.63390
O369        O  0.47447144  0.76480423  0.11257403    -0.58200
O370        O  0.46400404  0.75696672  0.00029056    -0.94880
O371        O  0.47176090  0.75916927  0.04760663    -0.93310
O372        O  0.44324794  0.70479406  0.12389425    -0.93660
O373        O  0.43691175  0.67504732  0.07614717    -0.92450
C374        C  0.47657226  0.76659352  0.02147691     1.16610
H375        H  0.42297445  0.75236428  0.12868476     0.32560
H376        H  0.39621660  0.70007059  0.03118080     0.43410
H377        H  0.43669881  0.79979342  0.02194805     0.36930
H378        H  0.33985668  0.78765092  0.06245978     0.33410
H379        H  0.39023875  0.66128273  0.10464569     0.25200
H380        H  0.31658507  0.74340265  0.99222662     0.31140
H381        H  0.35452215  0.82548668  0.98014289     0.37050
H382        H  0.43968398  0.68720486  0.13248347     0.31510
H383        H  0.46625976  0.76172686  0.13189286     0.30390
H384        H  0.43959822  0.83698328  0.07728572     0.32070
H385        H  0.38999937  0.86248163  0.01830630     0.31030
H386        H  0.44338752  0.67918863  0.05619686     0.35030
H387        H  0.44196252  0.69688497  0.00238055     0.27770
H388        H  0.34135036  0.79850747  0.15295804     0.32000
H389        H  0.34374842  0.84829431  0.03137396     0.34850
H390        H  0.47883959  0.74701518  0.10578263     0.27460
H391        H  0.43732749  0.70698282  0.97026091     0.40330
H392        H  0.33173578  0.68730046  0.05354194     0.30390
H393        H  0.37108513  0.67216621  0.08083007     0.38000
H394        H  0.41585617  0.85241353  0.03210203     0.29850
H395        H  0.30842199  0.76333819  0.01625727     0.29920
H396        H  0.33703897  0.81449625  0.12359592     0.30180
Zr397      Zr  0.49767878  0.64785639  0.26798612     2.17510
O398        O  0.52946663  0.62429604  0.23922057    -0.52170
O399        O  0.46775224  0.65857398  0.22849756    -0.75380
O400        O  0.48447232  0.60261239  0.26048882    -0.82160
O401        O  0.53277774  0.71487997  0.26081473    -0.83910
O402        O  0.46258763  0.58840836  0.30100444    -0.79530
O403        O  0.52570614  0.67720972  0.23629489    -0.91170
O404        O  0.43142651  0.65477221  0.25417690    -0.77130
O405        O  0.45731565  0.63885155  0.29270597    -0.86620
O406        O  0.47686093  0.68883272  0.27445086    -0.86310
O407        O  0.50567350  0.62603196  0.31491426    -0.73070
O408        O  0.52658702  0.67217928  0.29806174    -0.85200
Zr409      Zr  0.47770999  0.68387049  0.37511719     2.26420
Zr410      Zr  0.46495860  0.61968266  0.34051988     2.06270
Zr411      Zr  0.50506584  0.71331335  0.30409390     2.10050
Zr412      Zr  0.43700206  0.67980584  0.29807604     1.78760
O413        O  0.53908126  0.74342821  0.31848559    -0.94010
O414        O  0.39628785  0.65744229  0.30749918    -0.41810
O415        O  0.46629640  0.70264575  0.32830612    -0.78450
O416        O  0.44577063  0.66213882  0.34564603    -0.97130
O417        O  0.49613376  0.64178357  0.37000437    -0.90440
O418        O  0.51698823  0.69308722  0.34936730    -0.93280
C419        C  0.44327436  0.66087511  0.23063642     1.00470
C420        C  0.53614589  0.70034255  0.23835612     1.13400
C421        C  0.47181386  0.58513147  0.27520459     1.04180
O422        O  0.43196172  0.58592802  0.34538631    -0.95430
O423        O  0.43295079  0.62698840  0.38060086    -0.91180
O424        O  0.45753802  0.65238157  0.40841471    -0.84320
C425        C  0.43604051  0.64122524  0.40348441     1.10820
O426        O  0.56482189  0.62047927  0.31997259    -0.97410
Zr427      Zr  0.53541942  0.65051668  0.34416332     1.88940
O428        O  0.51522547  0.69328927  0.40595425    -0.74060
O429        O  0.48934357  0.58865334  0.37077220    -0.53320
O430        O  0.54439328  0.61364682  0.37727556    -0.98000
O431        O  0.57758430  0.66986122  0.33438494    -0.55220
O432        O  0.54933786  0.67009309  0.38977816    -0.74570
C433        C  0.53899555  0.68621571  0.40757564     0.97770
O434        O  0.45938352  0.70435053  0.41814023    -0.63390
O435        O  0.48870101  0.74567769  0.26877464    -0.58200
O436        O  0.45956507  0.72654680  0.37386342    -0.94880
O437        O  0.48066849  0.74387399  0.33457073    -0.93310
O438        O  0.42558417  0.71597979  0.26500580    -0.93660
O439        O  0.40409329  0.70968596  0.31573160    -0.92450
C440        C  0.46533500  0.74562084  0.35690480     1.16610
H441        H  0.47416998  0.69821298  0.25632837     0.32560
H442        H  0.42897774  0.66385939  0.35437895     0.43410
H443        H  0.52842151  0.70561828  0.35817297     0.36930
H444        H  0.51318464  0.60905205  0.31134894     0.33410
H445        H  0.38637343  0.65967596  0.28905681     0.25200
H446        H  0.47732959  0.57389500  0.37451697     0.31140
H447        H  0.56097689  0.61804618  0.38678998     0.37050
H448        H  0.40963060  0.71014399  0.25509881     0.31510
H449        H  0.49289944  0.73959374  0.24888474     0.30390
H450        H  0.55529804  0.73385898  0.31460305     0.32070
H451        H  0.58846620  0.66441454  0.35127273     0.31030
H452        H  0.40947335  0.71360453  0.33603129     0.35030
H453        H  0.44080561  0.69986709  0.41802507     0.27770
H454        H  0.51982608  0.61735535  0.22227706     0.32000
H455        H  0.57894098  0.61699246  0.33414460     0.34850
H456        H  0.46969424  0.74436921  0.27011777     0.27460
H457        H  0.46665924  0.69444161  0.43504376     0.40330
H458        H  0.41693437  0.59307373  0.33447074     0.30390
H459        H  0.40084664  0.63859275  0.30826830     0.38000
H460        H  0.57499846  0.68892592  0.33688157     0.29850
H461        H  0.50251720  0.58143644  0.35746811     0.29920
H462        H  0.53411246  0.60865704  0.25125771     0.30180
Zr463      Zr  0.52922335  0.92268758  0.25951812     2.17510
O464        O  0.50280919  0.95045272  0.22743272    -0.52170
O465        O  0.56254494  0.91677184  0.22228502    -0.75380
O466        O  0.54262646  0.96838596  0.26040621    -0.82160
O467        O  0.48992896  0.85768146  0.24422221    -0.83910
O468        O  0.56331158  0.97818182  0.30309601    -0.79530
O469        O  0.49743114  0.89895116  0.22632716    -0.91170
O470        O  0.59459165  0.91551887  0.25417778    -0.77130
O471        O  0.56963531  0.92326543  0.28593550    -0.86620
O472        O  0.54496738  0.87902597  0.26099887    -0.86310
O473        O  0.52298672  0.93978312  0.30865677    -0.73070
O474        O  0.49790551  0.89975438  0.28783351    -0.85200
Zr475      Zr  0.54618695  0.87177366  0.36292192     2.26420
Zr476      Zr  0.56379023  0.93897108  0.33479642     2.06270
Zr477      Zr  0.51363021  0.85583940  0.28896159     2.10050
Zr478      Zr  0.58510381  0.87955492  0.28689017     1.78760
O479        O  0.46772664  0.85039876  0.29991765    -0.94010
O480        O  0.63075440  0.88943778  0.29460553    -0.41810
O481        O  0.55389196  0.85543341  0.31448926    -0.78450
O482        O  0.57879969  0.89443179  0.33534711    -0.97130
O483        O  0.53168853  0.91614749  0.36290109    -0.90440
O484        O  0.50631681  0.87191679  0.33650937    -0.93280
C485        C  0.58662990  0.91444000  0.22798112     1.00470
C486        C  0.48655421  0.87582127  0.22505003     1.13400
C487        C  0.55453615  0.98422244  0.27740918     1.04180
O488        O  0.60452384  0.96264750  0.33385306    -0.95430
O489        O  0.59276111  0.92612391  0.37650734    -0.91180
O490        O  0.57275945  0.89217722  0.40003029    -0.84320
C491        C  0.59145338  0.90848246  0.39725524     1.10820
O492        O  0.46511967  0.95172030  0.31754736    -0.97410
Zr493      Zr  0.49171562  0.91587782  0.33672759     1.88940
O494        O  0.51064039  0.86865973  0.39835220    -0.74060
O495        O  0.54615790  0.96988124  0.36953498    -0.53320
O496        O  0.49073723  0.94864025  0.37491699    -0.98000
O497        O  0.44634672  0.90532082  0.32893246    -0.55220
O498        O  0.47603612  0.88968244  0.37808177    -0.74570
C499        C  0.48637329  0.87410685  0.39711432     0.97770
O500        O  0.57688485  0.84069048  0.38420808    -0.63390
O501        O  0.52523487  0.81984997  0.25664158    -0.58200
O502        O  0.53196714  0.82742879  0.36807596    -0.94880
O503        O  0.52823941  0.82066448  0.32074746    -0.93310
O504        O  0.58869648  0.84926178  0.24616772    -0.93660
O505        O  0.61362143  0.84417209  0.30309638    -0.92450
C506        C  0.52011293  0.81711940  0.34675951     1.16610
H507        H  0.54631307  0.87202436  0.24152564     0.32560
H508        H  0.59538188  0.89172840  0.34444459     0.43410
H509        H  0.49376022  0.86014933  0.34495121     0.36930
H510        H  0.51677911  0.95760654  0.30725780     0.33410
H511        H  0.63301363  0.90793272  0.28820489     0.25200
H512        H  0.56136038  0.97961884  0.37671622     0.31140
H513        H  0.47573179  0.94373437  0.38723505     0.37050
H514        H  0.60603049  0.84124669  0.24781838     0.31510
H515        H  0.52797830  0.82777368  0.23693943     0.30390
H516        H  0.45863152  0.86353171  0.28747307     0.32070
H517        H  0.43715590  0.91324070  0.34561148     0.31030
H518        H  0.60893656  0.84093780  0.32387946     0.35030
H519        H  0.59412029  0.84824579  0.38011058     0.27770
H520        H  0.51506518  0.95935289  0.21393432     0.32000
H521        H  0.45578488  0.95872992  0.33463055     0.34850
H522        H  0.54274364  0.81454482  0.26309553     0.27460
H523        H  0.57465645  0.84220496  0.40562273     0.40330
H524        H  0.61565203  0.95229509  0.32075670     0.30390
H525        H  0.63324276  0.88984082  0.31611372     0.38000
H526        H  0.44495171  0.88621138  0.33270331     0.29850
H527        H  0.53661094  0.98281263  0.35725745     0.29920
H528        H  0.49604510  0.96448336  0.24004228     0.30180
Zr529      Zr  0.64460363  0.27711760  0.39541783     2.17510
O530        O  0.66570432  0.31203898  0.36725540    -0.52170
O531        O  0.63655714  0.25060858  0.35243051    -0.75380
O532        O  0.69054670  0.26866209  0.38897077    -0.82160
O533        O  0.57698812  0.30986230  0.39107384    -0.83910
O534        O  0.70540155  0.24303152  0.42695035    -0.79530
O535        O  0.61644285  0.31021707  0.36954037    -0.91170
O536        O  0.64243843  0.21235849  0.37499641    -0.77130
O537        O  0.65495660  0.23446585  0.41613803    -0.86620
O538        O  0.60504332  0.25308365  0.39790885    -0.86310
O539        O  0.66433604  0.28210688  0.44335785    -0.73070
O540        O  0.61794333  0.30151470  0.42775931    -0.85200
Zr541      Zr  0.60709066  0.24399306  0.49785538     2.26420
Zr542      Zr  0.67240457  0.23891566  0.46480551     2.06270
Zr543      Zr  0.57850570  0.27693797  0.43014030     2.10050
Zr544      Zr  0.61561907  0.21105883  0.41796544     1.78760
O545        O  0.54727231  0.30947635  0.44576667    -0.94010
O546        O  0.63921750  0.16985378  0.42152080    -0.41810
O547        O  0.58919655  0.23539976  0.45037547    -0.78450
O548        O  0.63191584  0.21636770  0.46629214    -0.97130
O549        O  0.64745322  0.26569457  0.49663234    -0.90440
O550        O  0.59680333  0.28553168  0.47622358    -0.93280
C551        C  0.63533601  0.22558775  0.35256819     1.00470
C552        C  0.59286223  0.31867021  0.37172835     1.13400
C553        C  0.70826623  0.25549871  0.40241463     1.04180
O554        O  0.70516263  0.20472752  0.46547415    -0.95430
O555        O  0.66570816  0.20487920  0.50462166    -0.91180
O556        O  0.63878403  0.22752004  0.03355118    -0.84320
C557        C  0.65182308  0.20693323  0.02833769     1.10820
O558        O  0.66643119  0.34130924  0.45605974    -0.97410
Zr559      Zr  0.63742233  0.30738550  0.47492745     1.88940
O560        O  0.59453711  0.27843562  0.03406535    -0.74060
O561        O  0.70207043  0.26219167  0.49651468    -0.53320
O562        O  0.67105144  0.31399499  0.51142225    -0.98000
O563        O  0.61721210  0.35021179  0.46825384    -0.55220
O564        O  0.61405840  0.31541292  0.52002558    -0.74570
C565        C  0.59894995  0.30317205  0.03662737     0.97770
O566        O  0.58726853  0.20511209  0.51925737    -0.63390
O567        O  0.54723207  0.26183835  0.39424160    -0.58200
O568        O  0.56318676  0.23477941  0.50450790    -0.94880
O569        O  0.54847128  0.25200433  0.46145344    -0.93310
O570        O  0.58162153  0.20143348  0.38282560    -0.93660
O571        O  0.58946126  0.17315820  0.43166784    -0.92450
C572        C  0.54550222  0.23895719  0.48585030     1.16610
H573        H  0.59639089  0.25182932  0.37931343     0.32560
H574        H  0.63219616  0.19861945  0.47391207     0.43410
H575        H  0.58334006  0.29517628  0.48578672     0.36930
H576        H  0.68057798  0.29118379  0.44112264     0.33410
H577        H  0.63774732  0.16224025  0.40176043     0.25200
H578        H  0.70859090  0.24856277  0.51034969     0.31140
H579        H  0.66492453  0.32886417  0.52322558     0.37050
H580        H  0.58748437  0.18539487  0.37288110     0.31510
H581        H  0.55353604  0.26781265  0.37478314     0.30390
H582        H  0.53078265  0.30385901  0.43687908     0.32070
H583        H  0.61977910  0.35919217  0.48711061     0.31030
H584        H  0.58300096  0.17712625  0.45151653     0.35030
H585        H  0.59759764  0.20106466  0.53684502     0.27770
H586        H  0.67563836  0.30327576  0.35170149     0.32000
H587        H  0.66916981  0.35348370  0.47245301     0.34850
H588        H  0.54927019  0.24254457  0.39420751     0.27460
H589        H  0.59128668  0.19086990  0.50551128     0.40330
H590        H  0.69803804  0.19086627  0.45286269     0.30390
H591        H  0.65752848  0.17514589  0.42310710     0.38000
H592        H  0.59848975  0.34643850  0.46754397     0.29850
H593        H  0.71700171  0.26645482  0.48379709     0.29920
H594        H  0.67880287  0.31935609  0.38063210     0.30180
Zr595      Zr  0.36953785  0.29872688  0.37923540     2.17510
O596        O  0.34395627  0.26784923  0.35112652    -0.52170
O597        O  0.37672551  0.33040928  0.33945707    -0.75380
O598        O  0.32402104  0.31057272  0.37866512    -0.82160
O599        O  0.43545799  0.26588553  0.36386713    -0.83910
O600        O  0.31260562  0.33124575  0.42090816    -0.79530
O601        O  0.39539241  0.27035285  0.34426397    -0.91170
O602        O  0.37508332  0.36236582  0.37084801    -0.77130
O603        O  0.36636330  0.34025370  0.40456053    -0.86620
O604        O  0.41153426  0.31689005  0.38255324    -0.86310
O605        O  0.35191796  0.29176871  0.42835073    -0.73070
O606        O  0.39301177  0.26783329  0.40850790    -0.85200
Zr607      Zr  0.41660623  0.31792290  0.48207841     2.26420
Zr608      Zr  0.35002141  0.33331410  0.45352038     2.06270
Zr609      Zr  0.43538276  0.28608215  0.41036534     2.10050
Zr610      Zr  0.40873746  0.35798019  0.40695352     1.78760
O611        O  0.44099830  0.23925212  0.42059837    -0.94010
O612        O  0.41382858  0.40250237  0.38712961    -0.41810
O613        O  0.43421282  0.32742300  0.43452074    -0.78450
O614        O  0.39270769  0.35066869  0.45527162    -0.97130
O615        O  0.37357940  0.30154699  0.48190614    -0.90440
O616        O  0.41858934  0.27722646  0.45741393    -0.93280
C617        C  0.37997126  0.35453587  0.34526717     1.00470
C618        C  0.41920309  0.26197306  0.34347341     1.13400
C619        C  0.30760440  0.32167320  0.39556391     1.04180
O620        O  0.32982415  0.37630908  0.44955488    -0.95430
O621        O  0.35899006  0.35847936  0.49949900    -0.91180
O622        O  0.39774952  0.33966530  0.01723503    -0.84320
C623        C  0.37757744  0.35360300  0.02088600     1.10820
O624        O  0.34233832  0.23238231  0.43785677    -0.97410
Zr625      Zr  0.37591914  0.26079655  0.45723935     1.88940
O626        O  0.42407329  0.28073332  0.01635033    -0.74060
O627        O  0.31607566  0.31625744  0.48531903    -0.53320
O628        O  0.34208000  0.25900466  0.49418674    -0.98000
O629        O  0.38861399  0.21521306  0.45082564    -0.55220
O630        O  0.40011353  0.24626512  0.50056398    -0.74570
C631        C  0.41827033  0.25617844  0.01735982     0.97770
O632        O  0.44334200  0.35179958  0.50402830    -0.63390
O633        O  0.47353972  0.29779396  0.38116460    -0.58200
O634        O  0.46025628  0.30423011  0.48777890    -0.94880
O635        O  0.47065695  0.29892974  0.44110642    -0.93310
O636        O  0.45101667  0.35702788  0.38403353    -0.93660
O637        O  0.41637690  0.39726674  0.43550047    -0.92450
C638        C  0.47244860  0.29214232  0.46793732     1.16610
H639        H  0.41943470  0.31762195  0.36348916     0.32560
H640        H  0.39307434  0.36698432  0.46556222     0.43410
H641        H  0.43028795  0.26478318  0.46632722     0.36930
H642        H  0.33470161  0.28471422  0.42677893     0.33410
H643        H  0.42616178  0.40133338  0.37070706     0.25200
H644        H  0.30299866  0.33039533  0.48557524     0.31140
H645        H  0.34642155  0.24354181  0.50664833     0.37050
H646        H  0.46175089  0.36882253  0.39600344     0.31510
H647        H  0.47865329  0.28253429  0.36940352     0.30390
H648        H  0.43050032  0.23018634  0.40572602     0.32070
H649        H  0.38091025  0.20559029  0.46769558     0.31030
H650        H  0.43289175  0.39380287  0.44579386     0.35350
H651        H  0.45794747  0.35435326  0.49031490     0.27770
H652        H  0.33467399  0.27862499  0.33625198     0.32000
H653        H  0.33552943  0.22234549  0.45492317     0.34850
H654        H  0.46733229  0.31080060  0.36644784     0.27460
H655        H  0.43329786  0.36821754  0.50182557     0.40330
H656        H  0.33822018  0.38478269  0.43236817     0.30390
H657        H  0.39715185  0.40721989  0.37787084     0.38000
H658        H  0.40737195  0.21479471  0.45482243     0.29850
H659        H  0.30790593  0.30211341  0.47395993     0.29920
H660        H  0.33042470  0.26139869  0.36474226     0.30180
Zr661      Zr  0.52162746  0.15283605  0.23370598     2.17510
O662        O  0.48978728  0.12922824  0.26326239    -0.52170
O663        O  0.55065130  0.16453671  0.27347436    -0.75380
O664        O  0.53500237  0.10744897  0.24380996    -0.82160
O665        O  0.48944556  0.22067113  0.23714257    -0.83910
O666        O  0.55788828  0.09348779  0.20455143    -0.79530
O667        O  0.49041295  0.18127749  0.26123991    -0.91170
O668        O  0.58754579  0.15899150  0.24948735    -0.77130
O669        O  0.56260899  0.14369459  0.21089134    -0.86620
O670        O  0.54267105  0.19424015  0.22696395    -0.86310
O671        O  0.51493683  0.13094321  0.18731145    -0.73070
O672        O  0.49415420  0.17717472  0.20102691    -0.85200
Zr673      Zr  0.54577450  0.18866480  0.12564185     2.26420
Zr674      Zr  0.55631386  0.12443557  0.16360322     2.06270
Zr675      Zr  0.51604854  0.21813466  0.19375603     2.10050
Zr676      Zr  0.58325501  0.18463707  0.20502125     1.78760
O677        O  0.48052081  0.24465965  0.17450711    -0.94010
O678        O  0.62464766  0.16272606  0.19949170    -0.41810
O679        O  0.55565677  0.20741429  0.17210001    -0.78450
O680        O  0.57600868  0.16673726  0.15790173    -0.97130
O681        O  0.52668678  0.14671536  0.13150897    -0.90440
O682        O  0.50565961  0.19791765  0.14906869    -0.93280
C683        C  0.57529828  0.16544668  0.27232709     1.00470
C684        C  0.48266048  0.20547187  0.25843713     1.13400
C685        C  0.54849526  0.09015507  0.23041432     1.04180
O686        O  0.58783784  0.08923775  0.16023294    -0.95430
O687        O  0.59018569  0.13108115  0.12518692    -0.91180
O688        O  0.56831059  0.15760957  0.09457999    -0.84320
C689        C  0.58895197  0.14536930  0.10156564     1.10820
O690        O  0.45620622  0.12491750  0.17830087    -0.97410
Zr691      Zr  0.48659181  0.15550571  0.15546528     1.88940
O692        O  0.50860395  0.19779819  0.09304785    -0.74060
O693        O  0.53170601  0.09367715  0.13448863    -0.53320
O694        O  0.47908067  0.11917484  0.12251442    -0.98000
O695        O  0.44444636  0.17495510  0.16436607    -0.55220
O696        O  0.47315961  0.17599461  0.10951876    -0.74570
C697        C  0.48446728  0.19182048  0.09164420     0.97770
O698        O  0.56898222  0.20995377  0.08586088    -0.63390
O699        O  0.52631499  0.25601551  0.22307721    -0.58200
O700        O  0.56212373  0.23243718  0.12497677    -0.94880
O701        O  0.54301233  0.24864166  0.16540183    -0.93310
O702        O  0.59234078  0.22224737  0.23555173    -0.93660
O703        O  0.61792876  0.21287051  0.18721079    -0.92450
C704        C  0.55768370  0.25092168  0.14261782     1.16610
H705        H  0.54432034  0.20417125  0.24468758     0.32560
H706        H  0.59315985  0.16814807  0.14999738     0.43410
H707        H  0.49473723  0.21068404  0.13946316     0.36930
H708        H  0.50724394  0.11398747  0.19119569     0.33410
H709        H  0.63323770  0.16446481  0.21876349     0.25200
H710        H  0.54316744  0.08958757  0.11783751     0.31140
H711        H  0.46308080  0.12384443  0.11176435     0.37050
H712        H  0.60891339  0.21795472  0.24532313     0.31510
H713        H  0.52051891  0.27102410  0.21076284     0.30390
H714        H  0.47706743  0.25769022  0.18985357     0.32070
H715        H  0.43387613  0.17047536  0.14706268     0.31030
H716        H  0.61232281  0.21847600  0.16731016     0.35030
H717        H  0.58735516  0.20558339  0.08938310     0.27770
H718        H  0.49924548  0.12279296  0.28082761     0.32000
H719        H  0.44249606  0.12209902  0.16355494     0.34850
H720        H  0.54537603  0.25715104  0.22301718     0.27460
H721        H  0.56396275  0.19942835  0.06884047     0.40330
H722        H  0.60306718  0.09563534  0.17111903     0.30390
H723        H  0.62026321  0.14387537  0.19833514     0.38000
H724        H  0.44734778  0.19409245  0.16237487     0.29850
H725        H  0.53136884  0.07736389  0.14656224     0.29920
H726        H  0.48557260  0.11329072  0.25211935     0.30180
Zr727      Zr  0.50086689  0.42352560  0.23919774     2.17510
O728        O  0.53327048  0.45333257  0.25835322    -0.52170
O729        O  0.47274771  0.42111568  0.28156966    -0.75380
O730        O  0.48419188  0.46774515  0.23870284    -0.82160
O731        O  0.53468754  0.35888136  0.26134483    -0.83910
O732        O  0.45951830  0.47689113  0.19822515    -0.79530
O733        O  0.53082775  0.40110415  0.27569466    -0.91170
O734        O  0.43962858  0.41844678  0.25190166    -0.77130
O735        O  0.45829657  0.42357478  0.21730063    -0.86620
O736        O  0.48574842  0.37933802  0.24259725    -0.86310
O737        O  0.50199772  0.43971373  0.18854574    -0.73070
O738        O  0.53057986  0.39984177  0.20985286    -0.85200
Zr739      Zr  0.47550190  0.36996775  0.14420481     2.26420
Zr740      Zr  0.45904562  0.43826587  0.16695958     2.06270
Zr741      Zr  0.51558826  0.35557488  0.21360630     2.10050
Zr742      Zr  0.44324701  0.38002262  0.22211257     1.78760
O743        O  0.56096071  0.35242347  0.19978413    -0.94010
O744        O  0.39744191  0.38771450  0.23061379    -0.41810
O745        O  0.47284317  0.35492150  0.19427922    -0.78450
O746        O  0.44432208  0.39393373  0.17195264    -0.97130
O747        O  0.48935168  0.41427730  0.13878516    -0.90440
O748        O  0.51807847  0.37095521  0.16489201    -0.93280
C749        C  0.44870900  0.41741796  0.27768597     1.00470
C750        C  0.53974280  0.37733273  0.27899089     1.13400
C751        C  0.47006650  0.48304531  0.22279026     1.04180
O752        O  0.41706775  0.45939709  0.16960921    -0.95430
O753        O  0.43017722  0.42276404  0.12589482    -0.91180
O754        O  0.45796727  0.39611442  0.10456337    -0.84320
C755        C  0.43553436  0.40577455  0.10596660     1.10820
O756        O  0.55910341  0.45116634  0.17502784    -0.97410
Zr757      Zr  0.53149479  0.41520445  0.15955586     1.88940
O758        O  0.50866006  0.36189815  0.10698190    -0.74060
O759        O  0.47319702  0.47053409  0.13051150    -0.53320
O760        O  0.52920424  0.44756486  0.11976938    -0.98000
O761        O  0.57760784  0.40585432  0.16097149    -0.55220
O762        O  0.54242652  0.38881297  0.11727341    -0.74570
C763        C  0.53191886  0.37015981  0.10286004     0.97770
O764        O  0.43763997  0.34180295  0.13809096    -0.63390
O765        O  0.51982763  0.31327852  0.23889858    -0.58200
O766        O  0.48423836  0.32493715  0.13911004    -0.94880
O767        O  0.49583017  0.32069560  0.18525317    -0.93310
O768        O  0.44357369  0.34790404  0.26221262    -0.93660
O769        O  0.41108771  0.34881645  0.20509247    -0.92450
C770        C  0.49993363  0.31620673  0.15812008     1.16610
H771        H  0.48586382  0.37269536  0.26243753     0.32560
H772        H  0.42706759  0.39181196  0.16446756     0.43410
H773        H  0.53009177  0.35915631  0.15599208     0.36930
H774        H  0.50789799  0.45767850  0.18832332     0.33410
H775        H  0.39460536  0.38290645  0.25146162     0.25200
H776        H  0.45963322  0.48419166  0.13060791     0.31140
H777        H  0.54410629  0.44351862  0.10707828     0.37050
H778        H  0.42530547  0.34267514  0.26464153     0.31510
H779        H  0.53811117  0.31179557  0.24501873     0.30390
H780        H  0.56915219  0.36842169  0.20745236     0.32070
H781        H  0.58443587  0.41324730  0.14232873     0.31030
H782        H  0.40318374  0.35683827  0.18733330     0.35030
H783        H  0.43676876  0.33088401  0.15621045     0.27770
H784        H  0.52458276  0.46264492  0.27445135     0.32000
H785        H  0.56622900  0.45904701  0.15678766     0.34850
H786        H  0.50997504  0.31492148  0.25735631     0.27460
H787        H  0.42245714  0.35343953  0.13926906     0.40330
H788        H  0.40735291  0.44860530  0.18406926     0.30390
H789        H  0.39515272  0.40697731  0.22954778     0.38000
H790        H  0.57899373  0.38665186  0.15868979     0.29850
H791        H  0.48837872  0.47900902  0.13949335     0.29920
H792        H  0.53571440  0.46681207  0.24272447     0.30180
Zr793      Zr  0.13869683  0.30000871  0.36056092     2.17510
O794        O  0.15609468  0.27786536  0.40410691    -0.52170
O795        O  0.13110052  0.33781019  0.39228455    -0.75380
O796        O  0.18537346  0.30588822  0.36614849    -0.82160
O797        O  0.07442021  0.25907605  0.36230976    -0.83910
O798        O  0.20078042  0.32835912  0.32621257    -0.79530
O799        O  0.11059190  0.26754122  0.38854974    -0.91170
O800        O  0.13341063  0.37251194  0.36155303    -0.77130
O801        O  0.14792232  0.33894111  0.33204709    -0.86620
O802        O  0.09837053  0.32066248  0.35061923    -0.86310
O803        O  0.16155462  0.28750042  0.31650230    -0.73070
O804        O  0.11546976  0.26895105  0.33202029    -0.85200
Zr805      Zr  0.10671796  0.31217400  0.25021150     2.26420
Zr806      Zr  0.16891206  0.32695159  0.28722737     2.06270
Zr807      Zr  0.07506385  0.29008629  0.32166745     2.10050
Zr808      Zr  0.10741404  0.35866964  0.32165990     1.78760
O809        O  0.04276745  0.25705813  0.31047237    -0.94010
O810        O  0.12766582  0.39900455  0.30345629    -0.41810
O811        O  0.08461279  0.32784649  0.29295459    -0.78450
O812        O  0.12703057  0.34527338  0.27813476    -0.97130
O813        O  0.14785712  0.29361373  0.25937729    -0.90440
O814        O  0.09669588  0.27461175  0.27979605    -0.93280
C815        C  0.13119349  0.36273408  0.38712362     1.00470
C816        C  0.08860239  0.25551170  0.38508673     1.13400
C817        C  0.20335973  0.31784102  0.35180359     1.04180
O818        O  0.20161724  0.36106352  0.28324318    -0.95430
O819        O  0.16323030  0.35832271  0.24537141    -0.91180
O820        O  0.13865938  0.33286505  0.21744714    -0.84320
C821        C  0.14931825  0.35505675  0.22226092     1.10820
O822        O  0.16846421  0.22771803  0.31576224    -0.97410
Zr823      Zr  0.13806375  0.25567832  0.28894708     1.88940
O824        O  0.10125646  0.27225405  0.22164338    -0.74060
O825        O  0.19919759  0.30126511  0.25889277    -0.53320
O826        O  0.17310395  0.24582627  0.25536177    -0.98000
O827        O  0.12070462  0.21356361  0.30546426    -0.55220
O828        O  0.11684706  0.23692957  0.24669527    -0.74570
C829        C  0.10430937  0.24742765  0.22533801     0.97770
O830        O  0.08701536  0.34121986  0.21468102    -0.63390
O831        O  0.04568958  0.30552256  0.35961881    -0.58200
O832        O  0.06235121  0.31745464  0.23890553    -0.94880
O833        O  0.04545596  0.30845931  0.28384794    -0.93310
O834        O  0.07105855  0.36939295  0.35314711    -0.93660
O835        O  0.07920358  0.39170344  0.29949142    -0.92450
C836        C  0.04359276  0.31650457  0.25668554     1.16610
H837        H  0.08984835  0.32484223  0.36871384     0.32560
H838        H  0.12529395  0.36156488  0.26754309     0.43410
H839        H  0.08428034  0.26295337  0.27122069     0.36930
H840        H  0.17789831  0.27955933  0.32144204     0.33410
H841        H  0.12497152  0.41233121  0.31861080     0.25200
H842        H  0.20772802  0.31424619  0.24575911     0.31140
H843        H  0.16870552  0.22850447  0.24724939     0.37050
H844        H  0.05550903  0.36736212  0.34077492     0.31510
H845        H  0.05353609  0.30146028  0.37895846     0.30390
H846        H  0.05268063  0.24062304  0.30825181     0.32070
H847        H  0.12475985  0.20123860  0.28957763     0.31030
H848        H  0.07567144  0.38517262  0.27956054     0.35030
H849        H  0.08971632  0.35895556  0.22261407     0.27770
H850        H  0.16503812  0.29158610  0.41537798     0.32000
H851        H  0.17324202  0.21364498  0.30210603     0.34850
H852        H  0.04557503  0.32485985  0.35802252     0.27460
H853        H  0.09815856  0.34038111  0.19721065     0.40330
H854        H  0.19423277  0.37609781  0.29382669     0.30390
H855        H  0.14640311  0.39531404  0.30419672     0.38000
H856        H  0.10175638  0.21582658  0.30442209     0.29850
H857        H  0.21271919  0.29602661  0.27317831     0.29920
H858        H  0.16994561  0.26622236  0.39700527     0.30180
Zr859      Zr  0.87332985  0.27039033  0.37370476     2.17510
O860        O  0.84952332  0.29412609  0.41095284    -0.52170
O861        O  0.87558849  0.23281183  0.40765039    -0.75380
O862        O  0.82700800  0.26332191  0.37096525    -0.82160
O863        O  0.94003196  0.30076815  0.39457657    -0.83910
O864        O  0.81612298  0.24301886  0.32845422    -0.79530
O865        O  0.89764830  0.30169840  0.40680546    -0.91170
O866        O  0.87430901  0.20147545  0.37449759    -0.77130
O867        O  0.86934976  0.23111027  0.34550867    -0.86620
O868        O  0.91483314  0.25045770  0.37247117    -0.86310
O869        O  0.85712949  0.28132169  0.32474414    -0.73070
O870        O  0.89850003  0.30202881  0.34776086    -0.85200
Zr871      Zr  0.92245900  0.25448777  0.27115398     2.26420
Zr872      Zr  0.85428191  0.24126807  0.29706787     2.06270
Zr873      Zr  0.94003074  0.28226993  0.34709425     2.10050
Zr874      Zr  0.91077228  0.21156533  0.34424270     1.78760
O875        O  0.94164405  0.32958917  0.33869696    -0.94010
O876        O  0.89815988  0.16773587  0.32889107    -0.41810
O877        O  0.93739970  0.24271906  0.31968820    -0.78450
O878        O  0.89654909  0.22204566  0.29605938    -0.97130
O879        O  0.88016502  0.27288132  0.27103388    -0.90440
O880        O  0.92604499  0.29395556  0.29852853    -0.93280
C881        C  0.87474708  0.20848285  0.40100333     1.00470
C882        C  0.92166857  0.30856101  0.41072374     1.13400
C883        C  0.81071549  0.25257017  0.35365513     1.04180
O884        O  0.82918805  0.20097526  0.29653293    -0.95430
O885        O  0.86171472  0.21358602  0.25363551    -0.91180
O886        O  0.90165267  0.22505073  0.23743174    -0.84320
C887        C  0.88095640  0.21150736  0.23585507     1.10820
O888        O  0.85283476  0.34212463  0.32020469    -0.97410
Zr889      Zr  0.88377061  0.31205286  0.29860012     1.88940
O890        O  0.92817882  0.29132496  0.23722050    -0.74060
O891        O  0.82455365  0.26337261  0.26352785    -0.53320
O892        O  0.84936752  0.31715310  0.26253933    -0.98000
O893        O  0.89867660  0.35696805  0.30533056    -0.55220
O894        O  0.90773621  0.32680924  0.25560098    -0.74570
C895        C  0.92235008  0.31576641  0.23680701     0.97770
O896        O  0.95047281  0.23561366  0.23392071    -0.63390
O897        O  0.97612208  0.27622716  0.38105729    -0.58200
O898        O  0.96708799  0.25023269  0.28465601    -0.94880
O899        O  0.97957268  0.27231080  0.32268380    -0.93310
O900        O  0.93765992  0.20051440  0.38665725    -0.93660
O901        O  0.94543853  0.18306180  0.32788260    -0.92450
C902        C  0.97860850  0.26999147  0.29518620     1.16610
H903        H  0.92159096  0.24721688  0.39194257     0.32560
H904        H  0.89719484  0.20524486  0.28676354     0.43410
H905        H  0.93833354  0.30610556  0.29020364     0.36930
H906        H  0.84029246  0.28930085  0.32598419     0.33410
H907        H  0.90513930  0.15538137  0.34385446     0.25200
H908        H  0.81340871  0.24917226  0.25612499     0.31140
H909        H  0.85450538  0.33256122  0.25041152     0.37050
H910        H  0.94297547  0.18205643  0.38412017     0.31510
H911        H  0.99008038  0.28811982  0.37440837     0.30390
H912        H  0.93249585  0.33773222  0.35522216     0.32070
H913        H  0.89021402  0.36735020  0.28949368     0.31030
H914        H  0.94774512  0.18772533  0.30688656     0.35030
H915        H  0.94890007  0.21630579  0.23585693     0.27770
H916        H  0.83944050  0.28069360  0.42188935     0.32000
H917        H  0.84487579  0.35186572  0.30355973     0.34850
H918        H  0.98268576  0.25829733  0.37767911     0.27460
H919        H  0.94288921  0.24028610  0.21458341     0.40330
H920        H  0.83668360  0.19002141  0.31251775     0.30390
H921        H  0.87923267  0.16698981  0.33155853     0.38000
H922        H  0.91712245  0.35696273  0.29979014     0.29850
H923        H  0.81313119  0.27368450  0.27633564     0.29920
H924        H  0.83658099  0.30482883  0.40015839     0.30180
Zr925      Zr  0.99033167  0.14849071  0.01238704     2.17510
O926        O  0.01419720  0.12247007  0.97720020    -0.52170
O927        O  0.95305374  0.15509712  0.47957078    -0.75380
O928        O  0.97665564  0.10301255  0.01316480    -0.82160
O929        O  0.03038167  0.21264017  0.99649053    -0.83910
O930        O  0.95642070  0.09175997  0.05593229    -0.79530
O931        O  0.02042868  0.17360380  0.47731581    -0.91170
O932        O  0.92335208  0.15685322  0.01401573    -0.77130
O933        O  0.95114493  0.14859523  0.04042719    -0.86620
O934        O  0.97684721  0.19265395  0.01569154    -0.86310
O935        O  0.99757246  0.12830918  0.06073002    -0.73070
O936        O  0.02374909  0.16781851  0.04047665    -0.85200
Zr937      Zr  0.97902660  0.19496759  0.11715608     2.26420
Zr938      Zr  0.95758441  0.12966120  0.08811694     2.06270
Zr939      Zr  0.01022618  0.21238752  0.04309068     2.10050
Zr940      Zr  0.93769367  0.19280607  0.04300628     1.78760
O941        O  0.05680931  0.21377639  0.05135759    -0.94010
O942        O  0.89325287  0.18695706  0.05951499    -0.41810
O943        O  0.97075185  0.21453067  0.06969897    -0.78450
O944        O  0.94472619  0.17489447  0.09049183    -0.97130
O945        O  0.99105742  0.14978806  0.11591895    -0.90440
O946        O  0.01819613  0.19324126  0.08982994    -0.93280
C947        C  0.92928728  0.15643225  0.48732370     1.00470
C948        C  0.03212584  0.19636413  0.47644634     1.13400
C949        C  0.96492186  0.08657346  0.03016284     1.04180
O950        O  0.91524851  0.10919455  0.08589072    -0.95430
O951        O  0.93060929  0.14089483  0.13101208    -0.91180
O952        O  0.95076252  0.17490096  0.15342544    -0.84320
C953        C  0.93241734  0.15810986  0.15141649     1.10820
O954        O  0.05596550  0.11376416  0.06783721    -0.97410
Zr955      Zr  0.03042400  0.14887504  0.08894785     1.88940
O956        O  0.01327410  0.19255095  0.15349422    -0.74060
O957        O  0.97328170  0.09592087  0.12200035    -0.53320
O958        O  0.03030688  0.11254850  0.12428319    -0.98000
O959        O  0.07590862  0.15938330  0.08186191    -0.55220
O960        O  0.04658536  0.17070277  0.13280405    -0.74570
C961        C  0.03705660  0.18551978  0.15264341     0.97770
O962        O  0.95113156  0.22743974  0.13969668    -0.63390
O963        O  0.99982119  0.25091359  0.01254412    -0.58200
O964        O  0.00284720  0.23501637  0.12319150    -0.94880
O965        O  0.00214193  0.24725136  0.07649520    -0.93310
O966        O  0.92963922  0.21919951  0.99880664    -0.93660
O967        O  0.91592635  0.23332594  0.05599894    -0.92450
C968        C  0.01254519  0.24783207  0.10163161     1.16610
H969        H  0.97504275  0.20062891  0.99645213     0.32560
H970        H  0.92846876  0.17775622  0.10011706     0.43410
H971        H  0.03213804  0.20293037  0.09843076     0.36930
H972        H  0.00310555  0.11036347  0.05870289     0.33410
H973        H  0.88237341  0.19631562  0.04489111     0.25200
H974        H  0.95830918  0.08415953  0.12511485     0.31140
H975        H  0.04526279  0.11590838  0.13720367     0.37050
H976        H  0.91127685  0.22439877  0.99984891     0.31510
H977        H  0.99187717  0.24419673  0.99441355     0.30390
H978        H  0.06434803  0.20121787  0.03745588     0.32070
H979        H  0.08499156  0.15005848  0.09805503     0.31030
H980        H  0.91865070  0.23477036  0.07740197     0.35030
H981        H  0.95280001  0.24336152  0.12712118     0.27770
H982        H  0.00049649  0.11510472  0.46431332     0.32000
H983        H  0.06600995  0.10599529  0.08428769     0.34850
H984        H  0.98535565  0.25952843  0.02275077     0.27460
H985        H  0.93335104  0.22125629  0.13591819     0.40330
H986        H  0.90601909  0.11918521  0.07031398     0.30390
H987        H  0.88943091  0.16816024  0.05662532     0.38000
H988        H  0.07751919  0.17813387  0.08678584     0.29850
H989        H  0.98550046  0.08551276  0.11028561     0.29920
H990        H  0.02174423  0.10772867  0.98872017     0.30180
Zr991      Zr  0.02842394  0.41761263  0.01625386     2.17510
O992        O  0.00282127  0.43771629  0.97701757    -0.52170
O993        O  0.06360331  0.40978794  0.48169866    -0.75380
O994        O  0.03780440  0.46434986  0.00997279    -0.82160
O995        O  0.99052316  0.35155040  0.01496217    -0.83910
O996        O  0.06120425  0.47724945  0.04942991    -0.79530
O997        O  0.99549576  0.38982778  0.48977946    -0.91170
O998        O  0.09835258  0.41412315  0.00995209    -0.77130
O999        O  0.06714310  0.42748769  0.04327164    -0.86620
O1000       O  0.05016272  0.37691121  0.02380514    -0.86310
O1001       O  0.01726554  0.43893461  0.06188953    -0.73070
O1002       O  0.99954928  0.39226739  0.04584431    -0.85200
Zr1003     Zr  0.04408685  0.38104974  0.12593404     2.26420
Zr1004     Zr  0.05655188  0.44605144  0.08986216     2.06270
Zr1005     Zr  0.02166072  0.35167585  0.05405189     2.10050
Zr1006     Zr  0.08805220  0.38689192  0.05121882     1.78760
O1007       O  0.99125241  0.31843144  0.07129217    -0.94010
O1008       O  0.12819914  0.40826909  0.06560271    -0.41810
O1009       O  0.05825352  0.36378955  0.08055528    -0.78450
O1010       O  0.07588065  0.40369227  0.09707860    -0.97130
O1011       O  0.02490942  0.42274326  0.11839772    -0.90440
O1012       O  0.00655543  0.37083550  0.09798296    -0.93280
C1013       C  0.08820686  0.41034194  0.48539904     1.00470
C1014       C  0.98476270  0.36683359  0.49354701     1.13400
C1015       C  0.05156506  0.48115720  0.02375893     1.04180
O1016       O  0.08540171  0.48285734  0.09827141    -0.95430
O1017       O  0.08916982  0.43875839  0.12962611    -0.91180
O1018       O  0.06442490  0.41320759  0.15771514    -0.84320
C1019       C  0.08625764  0.42377318  0.15246685     1.10820
O1020       O  0.95763682  0.44272063  0.06471053    -0.97410
Zr1021     Zr  0.98722042  0.41300537  0.09032936     1.88940
O1022       O  0.00605651  0.37164227  0.15578880    -0.74060
O1023       O  0.02882207  0.47518986  0.11735100    -0.53320
O1024       O  0.97609083  0.44858545  0.12295732    -0.98000
O1025       O  0.94647633  0.39281506  0.07649111    -0.55220
O1026       O  0.97130706  0.39130564  0.13457571    -0.74570
C1027       C  0.98190353  0.37697570  0.15455721     0.97770
O1028       O  0.05895631  0.36182080  0.17125330    -0.63390
O1029       O  0.03409099  0.32097359  0.01605434    -0.58200
O1030       O  0.06418014  0.33843316  0.12604201    -0.94880
O1031       O  0.04979888  0.32240231  0.08295887    -0.93310
O1032       O  0.09631798  0.34768856  0.02283868    -0.93660
O1033       O  0.12371778  0.36030334  0.06982268    -0.92450
C1034       C  0.06304898  0.32036725  0.10702711     1.16610
H1035       H  0.05378384  0.36820129  0.00565597     0.32560
H1036       H  0.09234133  0.40137953  0.10631232     0.43410
H1037       H  0.99529980  0.35784897  0.10669273     0.36930
H1038       H  0.00935737  0.45570171  0.05752262     0.33410
H1039       H  0.13656712  0.41422813  0.04719884     0.25200
H1040       H  0.03908490  0.47969523  0.13488042     0.31140
H1041       H  0.95954314  0.44322330  0.13204943     0.37050
H1042       H  0.09351026  0.33284453  0.03674098     0.31510
H1043       H  0.03079251  0.32970014  0.99687215     0.30390
H1044       H  0.97403195  0.32602115  0.06713303     0.32070
H1045       H  0.93471133  0.39595181  0.09314396     0.31030
H1046       H  0.11753876  0.35335371  0.08896228     0.35030
H1047       H  0.07667716  0.36885098  0.17186123     0.27770
H1048       H  0.01539620  0.44464013  0.46300404     0.32000
H1049       H  0.94304647  0.44543005  0.07830471     0.34850
H1050       H  0.05308134  0.31975458  0.01730229     0.27460
H1051       H  0.04964703  0.37118768  0.18686278     0.40330
H1052       H  0.10181739  0.47787911  0.08878689     0.30390
H1053       H  0.12272728  0.42472653  0.07497166     0.38000
H1054       H  0.94994205  0.37372621  0.07740373     0.29850
H1055       H  0.02831750  0.49158328  0.10542108     0.29920
H1056       H  0.99471574  0.45341254  0.98555418     0.30180
C1057       C  0.07646855  0.29532997  0.11301834    -0.06970
C1058       C  0.07763193  0.27997306  0.08814948    -0.18090
C1059       C  0.05482539  0.26667644  0.08180667     0.10230
C1060       C  0.03777449  0.26030114  0.10547838    -0.06890
C1061       C  0.04614163  0.26549884  0.13419627    -0.18130
C1062       C  0.06680224  0.28260450  0.13795315     0.10260
S1063       S  0.04600785  0.26715388  0.04382405    -0.33090
S1064       S  0.07383313  0.29464152  0.17333112    -0.33100
H1065       H  0.09749572  0.30572752  0.16446976     0.28270
H1066       H  0.02396535  0.28236673  0.04902778     0.28270
H1067       H  0.08932314  0.28699341  0.06995833     0.18860
H1068       H  0.03544301  0.25860681  0.15319637     0.18870
C1069       C  0.88229326  0.19021879  0.21423610    -0.06970
C1070       C  0.89766020  0.16850311  0.22241081    -0.18090
C1071       C  0.91204779  0.15472485  0.20160013     0.10230
C1072       C  0.91059748  0.16223006  0.17178710    -0.06890
C1073       C  0.89245113  0.18143983  0.16326957    -0.18130
C1074       C  0.87852623  0.19561567  0.18413034     0.10260
S1075       S  0.93436999  0.13009697  0.21466915    -0.33090
S1076       S  0.85919030  0.22285837  0.17135965    -0.33100
H1077       H  0.84425838  0.22469691  0.19695885     0.28270
H1078       H  0.93673592  0.11719161  0.18780011     0.28270
H1079       H  0.90105912  0.16434577  0.24548217     0.18860
H1080       H  0.89128626  0.18756224  0.14043018     0.18870
C1081       C  0.90869186  0.16130160  0.46578149    -0.06970
C1082       C  0.88857641  0.17818746  0.47409529    -0.18090
C1083       C  0.87426587  0.19200130  0.45314908     0.10230
C1084       C  0.87964298  0.18810529  0.42341740    -0.06890
C1085       C  0.89555254  0.16699498  0.41549480    -0.18130
C1086       C  0.91058201  0.15384649  0.43638586     0.10260
S1087       S  0.85094501  0.21555513  0.46556060    -0.33090
S1088       S  0.93277580  0.12916175  0.42408872    -0.33100
H1089       H  0.93321528  0.11503007  0.45083666     0.28270
H1090       H  0.83587450  0.21523847  0.43987922     0.28270
H1091       H  0.88567458  0.18282890  0.49686523     0.18860
H1092       H  0.89861783  0.16262095  0.39269670     0.18870
C1093       C  0.93506651  0.33271644  0.21469358    -0.06970
C1094       C  0.94887649  0.35457516  0.22462594    -0.18090
C1095       C  0.96398859  0.36981043  0.20548006     0.10230
C1096       C  0.96493556  0.36341197  0.17559491    -0.06890
C1097       C  0.95083934  0.34186297  0.16552619    -0.18130
C1098       C  0.93607875  0.32635361  0.18472372     0.10260
S1099       S  0.98223683  0.39646543  0.22065338    -0.33090
S1100       S  0.91927818  0.29866672  0.16968825    -0.33100
H1101       H  0.89847038  0.29923592  0.18940069     0.28270
H1102       H  0.98338274  0.41188696  0.19486115     0.28270
H1103       H  0.94868001  0.35922280  0.24772637     0.18860
H1104       H  0.95186667  0.33669111  0.14259815     0.18870
C1105       C  0.93037830  0.32732893  0.43402060    -0.06970
C1106       C  0.94360722  0.35029926  0.42471413    -0.18090
C1107       C  0.96058412  0.36421616  0.44324200     0.10230
C1108       C  0.96450431  0.35575469  0.47268387    -0.06890
C1109       C  0.94982613  0.33368446  0.48235232    -0.18130
C1110       C  0.93336722  0.31950103  0.46363339     0.10260
S1111       S  0.97837785  0.39098086  0.42693896    -0.33090
S1112       S  0.91901767  0.28982015  0.47807843    -0.33100
H1113       H  0.89650160  0.29151797  0.46101173     0.28270
H1114       H  0.00251022  0.38094535  0.43573813     0.28270
H1115       H  0.94232910  0.35636352  0.40190176     0.18860
H1116       H  0.95190951  0.32646562  0.50469372     0.18870
C1117       C  0.14082058  0.37835312  0.20383924    -0.06970
C1118       C  0.12607120  0.39806526  0.21730578    -0.18090
C1119       C  0.10968153  0.41496596  0.20098111     0.10230
C1120       C  0.10897811  0.41379237  0.17004213    -0.06890
C1121       C  0.12640885  0.39650349  0.15649909    -0.18130
C1122       C  0.14156568  0.37848102  0.17287458     0.10260
S1123       S  0.08862274  0.43627701  0.22104582    -0.33090
S1124       S  0.16036725  0.35504831  0.15293591    -0.33100
H1125       H  0.17840491  0.35012658  0.17541899     0.28270
H1126       H  0.08478232  0.45458106  0.19804776     0.28270
H1127       H  0.12534009  0.39888237  0.24094474     0.18860
H1128       H  0.12688900  0.39532492  0.13290234     0.18870
C1129       C  0.10528647  0.40431195  0.46076205    -0.06970
C1130       C  0.09827457  0.41327789  0.43286555    -0.18090
C1131       C  0.10958385  0.40273102  0.40798140     0.10230
C1132       C  0.12635072  0.38084196  0.41127394    -0.06890
C1133       C  0.13566208  0.37413468  0.43910762    -0.18130
C1134       C  0.12629629  0.38663909  0.46390514     0.10260
S1135       S  0.10083047  0.41673935  0.37277563    -0.33090
S1136       S  0.14064596  0.37848180  0.49896491    -0.33100
H1137       H  0.16127335  0.36366656  0.98842109     0.28270
H1138       H  0.08842487  0.43927028  0.38319283     0.28270
H1139       H  0.08318456  0.42786360  0.43061670     0.18860
H1140       H  0.14960870  0.35842538  0.44143336     0.18870
C1141       C  0.07759100  0.23667137  0.40830959    -0.06970
C1142       C  0.05700748  0.21967467  0.40050736    -0.18090
C1143       C  0.04270322  0.20488526  0.42149720     0.10230
C1144       C  0.04937732  0.20569283  0.45150988    -0.06890
C1145       C  0.07118985  0.22096569  0.45896515    -0.18130
C1146       C  0.08473004  0.23664003  0.43831629     0.10260
S1147       S  0.01495217  0.18712614  0.40878166    -0.33090
S1148       S  0.10925786  0.25792015  0.45254712    -0.33100
H1149       H  0.09817821  0.28073433  0.44013164     0.28270
H1150       H  0.99855511  0.19523749  0.43142109     0.28270
H1151       H  0.05091494  0.21887897  0.37782051     0.18860
H1152       H  0.07676297  0.22220088  0.48181424     0.18870
C1153       C  0.08864022  0.23003683  0.20689695    -0.06970
C1154       C  0.06371917  0.22402226  0.21689973    -0.18090
C1155       C  0.04707433  0.20799423  0.20096615     0.10230
C1156       C  0.05523882  0.19775872  0.17382348    -0.06890
C1157       C  0.08063057  0.20324516  0.16434398    -0.18130
C1158       C  0.09722388  0.21943926  0.18035684     0.10260
S1159       S  0.01586116  0.20132425  0.21683831    -0.33090
S1160       S  0.12874110  0.22622964  0.16543508    -0.33100
H1161       H  0.13228353  0.25062643  0.17869437     0.28270
H1162       H  0.01447759  0.17545665  0.20670518     0.28270
H1163       H  0.05709615  0.23197639  0.23746105     0.18860
H1164       H  0.08722862  0.19607529  0.14343279     0.18870
C1165       C  0.01805072  0.32502478  0.24557572    -0.06970
C1166       C  0.00367320  0.33596228  0.26793668    -0.18090
C1167       C  0.99174645  0.31790352  0.28679374     0.10230
C1168       C  0.98644786  0.29215969  0.27615057    -0.06890
C1169       C  0.99040811  0.28766469  0.24613354    -0.18130
C1170       C  0.00521605  0.30555654  0.23000798     0.10260
S1171       S  0.99375726  0.32622542  0.32466418    -0.33090
S1172       S  0.01016917  0.30112002  0.19159268    -0.33100
H1173       H  0.02355149  0.32490054  0.18762603     0.28270
H1174       H  0.01026483  0.30509502  0.32952878     0.28270
H1175       H  0.01038252  0.35428957  0.27694137     0.18860
H1176       H  0.98419698  0.26979547  0.23596070     0.18870
C1177       C  0.56720261  0.27717302  0.13499310    -0.06970
C1178       C  0.55238904  0.28657552  0.11157261    -0.18090
C1179       C  0.52878930  0.29811412  0.11854455     0.10230
C1180       C  0.52473727  0.30618658  0.14791505    -0.06890
C1181       C  0.54566805  0.30543762  0.16752571    -0.18130
C1182       C  0.56861230  0.29332430  0.15942645     0.10260
S1183       S  0.50372585  0.29664529  0.09125434    -0.33090
S1184       S  0.59361602  0.28884562  0.18635626    -0.33100
H1185       H  0.60923383  0.27339076  0.16825651     0.28270
H1186       H  0.48654728  0.28340465  0.11017419     0.28270
H1187       H  0.55446302  0.27756487  0.09036859     0.18860
H1188       H  0.54335699  0.31160875  0.18976294     0.18870
C1189       C  0.28060304  0.32178188  0.38553628    -0.06970
C1190       C  0.26862971  0.29741996  0.38172818    -0.18090
C1191       C  0.24331087  0.29568863  0.37143428     0.10230
C1192       C  0.22935700  0.31881178  0.36491091    -0.06890
C1193       C  0.24121609  0.34326085  0.36900354    -0.18130
C1194       C  0.26668024  0.34499973  0.37927951     0.10260
S1195       S  0.23032406  0.26343764  0.36559571    -0.33090
S1196       S  0.28049275  0.37722812  0.38303563    -0.33100
H1197       H  0.30608983  0.37001685  0.37704448     0.28270
H1198       H  0.22024599  0.26974590  0.33774859     0.28270
H1199       H  0.27927549  0.27953345  0.38641468     0.18860
H1200       H  0.23069104  0.36108828  0.36373392     0.18870
C1201       C  0.37877042  0.36838533  0.04927904    -0.06970
C1202       C  0.39272637  0.35475778  0.07110158    -0.18090
C1203       C  0.41512870  0.36630805  0.08177998     0.10230
C1204       C  0.41535852  0.39382490  0.08629950    -0.06890
C1205       C  0.39609199  0.40858858  0.07140628    -0.18130
C1206       C  0.37940475  0.39623810  0.05080184     0.10260
S1207       S  0.44373777  0.34765741  0.07243616    -0.33090
S1208       S  0.36088051  0.41661796  0.02611839    -0.33100
H1209       H  0.34149749  0.39785170  0.02152713     0.28270
H1210       H  0.46062290  0.35282960  0.09520714     0.28270
H1211       H  0.39250510  0.33347611  0.07063048     0.18860
H1212       H  0.39585685  0.42971612  0.07334043     0.18870
C1213       C  0.39621031  0.37123818  0.32635282    -0.06970
C1214       C  0.42242185  0.36485076  0.32526269    -0.18090
C1215       C  0.44076239  0.38250871  0.31481700     0.10230
C1216       C  0.43244023  0.40563775  0.30061159    -0.06890
C1217       C  0.40611821  0.41235433  0.30139058    -0.18130
C1218       C  0.38804082  0.39578345  0.31510614     0.10260
S1219       S  0.47457090  0.37490939  0.31989760    -0.33090
S1220       S  0.35493514  0.40648599  0.31647590    -0.33100
H1221       H  0.34387840  0.38140815  0.31927605     0.28270
H1222       H  0.47160893  0.34821296  0.32733534     0.28270
H1223       H  0.42907305  0.34640978  0.33366486     0.18860
H1224       H  0.39951982  0.43006672  0.29026877     0.18870
C1225       C  0.46771402  0.20744142  0.07171467    -0.06970
C1226       C  0.46052099  0.23249549  0.08103467    -0.18090
C1227       C  0.44298738  0.24805268  0.06508754     0.10230
C1228       C  0.43268378  0.23886379  0.03843697    -0.06890
C1229       C  0.43932160  0.21331706  0.02964690    -0.18130
C1230       C  0.45655566  0.19756739  0.04598977     0.10260
S1231       S  0.43359525  0.27876632  0.08082449    -0.33090
S1232       S  0.46372359  0.16530350  0.03270282    -0.33100
H1233       H  0.48817381  0.16293208  0.04580548     0.28270
H1234       H  0.40813458  0.27819074  0.07016166     0.28270
H1235       H  0.46814445  0.23973082  0.10149551     0.18860
H1236       H  0.43181731  0.20583920  0.00924949     0.18870
C1237       C  0.43126073  0.24795929  0.31788123    -0.06970
C1238       C  0.45543774  0.25777808  0.30886463    -0.18090
C1239       C  0.47277697  0.24321898  0.29208651     0.10230
C1240       C  0.46578000  0.21835803  0.28116529    -0.06890
C1241       C  0.44117401  0.20855327  0.28908259    -0.18130
C1242       C  0.42427537  0.22266151  0.30785835     0.10260
S1243       S  0.50456840  0.25702255  0.28726897    -0.33090
S1244       S  0.39451355  0.20705877  0.31857235    -0.33100
H1245       H  0.39254307  0.21862199  0.34619618     0.28270
H1246       H  0.51760982  0.23284813  0.28682997     0.28270
H1247       H  0.46181317  0.27660783  0.31686170     0.18860
H1248       H  0.43510158  0.18976708  0.28077541     0.18870
C1249       C  0.73408804  0.25495293  0.38888135    -0.06970
C1250       C  0.74561882  0.23064546  0.38322736    -0.18090
C1251       C  0.77008213  0.22921131  0.37029139     0.10230
C1252       C  0.78362646  0.25250885  0.36342649    -0.06890
C1253       C  0.77210884  0.27675411  0.36915036    -0.18130
C1254       C  0.74763264  0.27824676  0.38181434     0.10260
S1255       S  0.78382857  0.19729214  0.36485725    -0.33090
S1256       S  0.73553710  0.31042763  0.39004373    -0.33100
H1257       H  0.72337795  0.30292915  0.41640299     0.28270
H1258       H  0.78901372  0.20213491  0.33504871     0.28270
H1259       H  0.73544612  0.21268083  0.38879411     0.18860
H1260       H  0.78262733  0.29471180  0.36446562     0.18870
C1261       C  0.61268377  0.15204240  0.08397432    -0.06970
C1262       C  0.63038163  0.16970000  0.09629903    -0.18090
C1263       C  0.64662333  0.18559132  0.07867622     0.10230
C1264       C  0.64625852  0.18347003  0.04778091    -0.06890
C1265       C  0.63155593  0.16292321  0.03590089    -0.18130
C1266       C  0.61430017  0.14790482  0.05340365     0.10260
S1267       S  0.66553495  0.21025048  0.09663442    -0.33090
S1268       S  0.59291204  0.12567885  0.03505301    -0.33100
H1269       H  0.58727994  0.11011549  0.05997428     0.28270
H1270       H  0.68327607  0.21385030  0.07360812     0.28270
H1271       H  0.62969438  0.17327872  0.11960703     0.18860
H1272       H  0.63078611  0.16089642  0.01231229     0.18870
C1273       C  0.58975279  0.17902771  0.29517272    -0.06970
C1274       C  0.58295251  0.20515516  0.30008081    -0.18090
C1275       C  0.59904248  0.22185418  0.31581379     0.10230
C1276       C  0.62171290  0.21155618  0.32903129    -0.06890
C1277       C  0.62838147  0.18522907  0.32420053    -0.18130
C1278       C  0.61290565  0.16904833  0.30705625     0.10260
S1279       S  0.58991112  0.25598566  0.31863727    -0.33090
S1280       S  0.62332568  0.13572857  0.30175063    -0.33100
H1281       H  0.59856721  0.12522709  0.29734578     0.28270
H1282       H  0.56772772  0.25516584  0.30090023     0.28270
H1283       H  0.56556402  0.21291650  0.29009089     0.18860
H1284       H  0.64552694  0.17702265  0.33441031     0.18870
C1285       C  0.58179333  0.31860024  0.05535965    -0.06970
C1286       C  0.55695259  0.32415324  0.04448552    -0.18090
C1287       C  0.54084121  0.34242456  0.05798254     0.10230
C1288       C  0.54924542  0.35480395  0.08374440    -0.06890
C1289       C  0.57435207  0.34945643  0.09424338    -0.18130
C1290       C  0.59064523  0.33167695  0.08031240     0.10260
S1291       S  0.51039797  0.34981941  0.04054475    -0.33090
S1292       S  0.62216615  0.32592641  0.09583653    -0.33100
H1293       H  0.62488905  0.30021913  0.08561998     0.28270
H1294       H  0.50863214  0.37561786  0.05075523     0.28270
H1295       H  0.55044273  0.31496673  0.02452995     0.18860
H1296       H  0.58106904  0.35839980  0.11421734     0.18870
C1297       C  0.55718134  0.36899848  0.30407370    -0.06970
C1298       C  0.54864655  0.37007583  0.33321718    -0.18090
C1299       C  0.56112376  0.35575411  0.35604499     0.10230
C1300       C  0.58247039  0.33897516  0.34995323    -0.06890
C1301       C  0.59217342  0.33968996  0.32123163    -0.18130
C1302       C  0.58000324  0.35439706  0.29856985     0.10260
S1303       S  0.54864504  0.35991393  0.39251822    -0.33090
S1304       S  0.59355760  0.35380124  0.26215700    -0.33100
H1305       H  0.61460623  0.33730034  0.26864192     0.28270
H1306       H  0.57286609  0.35797489  0.40635720     0.28270
H1307       H  0.53146481  0.38122838  0.33812716     0.18860
H1308       H  0.60863753  0.32756740  0.31612662     0.18870
C1309       C  0.51956202  0.22973482  0.49314210    -0.06970
C1310       C  0.50502632  0.22578167  0.46800930    -0.18090
C1311       C  0.49259785  0.24804848  0.45680407     0.10230
C1312       C  0.48613981  0.26827732  0.47663656    -0.06890
C1313       C  0.49156170  0.26446713  0.50663993    -0.18130
C1314       C  0.50812851  0.24445944  0.51519004     0.10260
S1315       S  0.49327903  0.25279608  0.41767819    -0.33090
S1316       S  0.52118431  0.24363750  0.05052259    -0.33100
H1317       H  0.53034747  0.21796088  0.04817907     0.28270
H1318       H  0.49639393  0.22632870  0.41023557     0.28270
H1319       H  0.51197867  0.21126222  0.45287244     0.18860
H1320       H  0.48540750  0.27657653  0.02066415     0.18870
C1321       C  0.55292368  0.06382726  0.24449925    -0.06970
C1322       C  0.55962328  0.04299189  0.22609336    -0.18090
C1323       C  0.56231678  0.01736471  0.23677029     0.10230
C1324       C  0.55734629  0.01163191  0.26658179    -0.06890
C1325       C  0.55224011  0.03242229  0.28555419    -0.18130
C1326       C  0.55026494  0.05848933  0.27498129     0.10260
S1327       S  0.57245441  0.99290461  0.21108768    -0.33090
S1328       S  0.54482221  0.08439814  0.30081099    -0.33100
H1329       H  0.54569111  0.06870616  0.32644617     0.28270
H1330       H  0.58620576  0.97756761  0.23173124     0.28270
H1331       H  0.56252333  0.04646245  0.20283682     0.18860
H1332       H  0.54885658  0.02806789  0.30853721     0.18870
C1333       C  0.46812950  0.55908552  0.26173991    -0.06970
C1334       C  0.46802686  0.55721790  0.23097530    -0.18090
C1335       C  0.46756723  0.53281316  0.21726442     0.10230
C1336       C  0.46623334  0.50960542  0.23456812    -0.06890
C1337       C  0.46443870  0.51162586  0.26511921    -0.18130
C1338       C  0.46608917  0.53572666  0.27887168     0.10260
S1339       S  0.47089196  0.53264638  0.17799278    -0.33090
S1340       S  0.46835886  0.53453302  0.31831007    -0.33100
H1341       H  0.49084565  0.54995316  0.31886787     0.28270
H1342       H  0.49035189  0.51343376  0.17832960     0.28270
H1343       H  0.46945928  0.57484260  0.21747196     0.18860
H1344       H  0.46338259  0.49398155  0.27867346     0.18870
C1345       C  0.45518396  0.77148843  0.36389243    -0.06970
C1346       C  0.45351258  0.78741277  0.33887605    -0.18090
C1347       C  0.47654233  0.79948549  0.33053660     0.10230
C1348       C  0.49514085  0.80470375  0.35263262    -0.06890
C1349       C  0.48886664  0.79847367  0.38198386    -0.18130
C1350       C  0.46812004  0.78194226  0.38790626     0.10260
S1351       S  0.48352187  0.79876659  0.29209268    -0.33090
S1352       S  0.46524427  0.76743918  0.42383344    -0.33100
H1353       H  0.44096148  0.75617039  0.41837761     0.28270
H1354       H  0.50650872  0.78454486  0.29630640     0.28270
H1355       H  0.44039241  0.78145387  0.32169580     0.18860
H1356       H  0.50126501  0.80408227  0.39981739     0.18870
C1357       C  0.43732151  0.82531113  0.45092953    -0.06970
C1358       C  0.45671463  0.84057673  0.46392743    -0.18090
C1359       C  0.47213921  0.85773352  0.44724460     0.10230
C1360       C  0.46864607  0.85934059  0.41669465    -0.06890
C1361       C  0.44865170  0.84475740  0.40378108    -0.18130
C1362       C  0.43278113  0.82801495  0.42057701     0.10260
S1363       S  0.49501548  0.87802538  0.46618757    -0.33090
S1364       S  0.40744670  0.81061614  0.40194470    -0.33100
H1365       H  0.39159938  0.80601138  0.42643145     0.28270
H1366       H  0.49461525  0.89898904  0.44577724     0.28270
H1367       H  0.45968113  0.83931305  0.48743964     0.18860
H1368       H  0.44576101  0.84594201  0.38025363     0.18870
C1369       C  0.47039946  0.86723632  0.19942487    -0.06970
C1370       C  0.44325653  0.86464126  0.20218039    -0.18090
C1371       C  0.42825954  0.84879747  0.18302090     0.10230
C1372       C  0.44046982  0.83358715  0.16122098    -0.06890
C1373       C  0.46768222  0.83690652  0.15866084    -0.18130
C1374       C  0.48228778  0.85322822  0.17680501     0.10260
S1375       S  0.39390556  0.84846934  0.18797199    -0.33090
S1376       S  0.51684951  0.85307165  0.17180140    -0.33100
H1377       H  0.52099173  0.87870280  0.18159102     0.28270
H1378       H  0.38860222  0.85169683  0.15786779     0.28270
H1379       H  0.43369546  0.87439009  0.22005886     0.18860
H1380       H  0.47846893  0.82616931  0.14249770     0.18870
C1381       C  0.41386295  0.64904670  0.42265310    -0.06970
C1382       C  0.39523983  0.66626359  0.41058434    -0.18090
C1383       C  0.38072375  0.68327192  0.42829706     0.10230
C1384       C  0.38384026  0.68269132  0.45912148    -0.06890
C1385       C  0.40013158  0.66327003  0.47132441    -0.18130
C1386       C  0.41533140  0.64692984  0.45359713     0.10260
S1387       S  0.36037807  0.70715685  0.41014230    -0.33090
S1388       S  0.43813466  0.62545610  0.47170693    -0.33100
H1389       H  0.44073166  0.60805588  0.44829734     0.28270
H1390       H  0.34455765  0.71190797  0.43450643     0.28270
H1391       H  0.39382497  0.66854030  0.38699998     0.18860
H1392       H  0.40319180  0.66267297  0.49483025     0.18870
C1393       C  0.39470046  0.70618856  0.17406912    -0.06970
C1394       C  0.41911020  0.71534883  0.18187235    -0.18090
C1395       C  0.43671025  0.69920937  0.19649504     0.10230
C1396       C  0.42848448  0.67451909  0.20746644    -0.06890
C1397       C  0.40344390  0.66576356  0.20096245    -0.18130
C1398       C  0.38680797  0.68095506  0.18342569     0.10260
S1399       S  0.46959024  0.71050992  0.19982521    -0.33090
S1400       S  0.35573147  0.66745492  0.17431234    -0.33100
H1401       H  0.34326553  0.69164476  0.16956757     0.28270
H1402       H  0.46684248  0.73462288  0.18473437     0.28270
H1403       H  0.42524183  0.73454269  0.17431880     0.18860
H1404       H  0.39683551  0.64703264  0.20964669     0.18870
C1405       C  0.59024698  0.73280839  0.46001216    -0.06970
C1406       C  0.56377233  0.73230332  0.46622612    -0.18090
C1407       C  0.54692103  0.71562729  0.45155721     0.10230
C1408       C  0.55635230  0.69973062  0.42872553    -0.06890
C1409       C  0.58319814  0.69974611  0.42326848    -0.18130
C1410       C  0.60015012  0.71598782  0.43866586     0.10260
S1411       S  0.51398696  0.71512658  0.46412355    -0.33090
S1412       S  0.63387836  0.71519271  0.42914859    -0.33100
H1413       H  0.63954867  0.74107359  0.43708878     0.28270
H1414       H  0.51126974  0.68781594  0.46138908     0.28270
H1415       H  0.55620571  0.74458786  0.48339061     0.18860
H1416       H  0.59106917  0.68787264  0.40597348     0.18870
C1417       C  0.55295137  0.71216486  0.21376564    -0.06970
C1418       C  0.57112520  0.73189688  0.22075217    -0.18090
C1419       C  0.58522724  0.74619996  0.19914070     0.10230
C1420       C  0.58102938  0.74190887  0.16883964    -0.06890
C1421       C  0.56323422  0.72187626  0.16182123    -0.18130
C1422       C  0.54983964  0.70687569  0.18346549     0.10260
S1423       S  0.60686975  0.77115074  0.21175890    -0.33090
S1424       S  0.52794646  0.68225406  0.17062895    -0.33100
H1425       H  0.54001831  0.66198112  0.18681033     0.28270
H1426       H  0.62851845  0.75941590  0.19885690     0.28270
H1427       H  0.57427067  0.73660899  0.24354646     0.18860
H1428       H  0.55951296  0.71783175  0.13896242     0.18870
C1429       C  0.64788682  0.87539204  0.45601836    -0.06970
C1430       C  0.62989969  0.89369214  0.46662964    -0.18090
C1431       C  0.61270569  0.90720873  0.44769108     0.10230
C1432       C  0.61396928  0.90348161  0.41710615    -0.06890
C1433       C  0.63387863  0.88755934  0.40632635    -0.18130
C1434       C  0.65048286  0.87339130  0.42528303     0.10260
S1435       S  0.58788634  0.92689028  0.46402402    -0.33090
S1436       S  0.67308170  0.85109180  0.40904999    -0.33100
H1437       H  0.68988956  0.84979502  0.43326820     0.28270
H1438       H  0.58284901  0.94243612  0.43890646     0.28270
H1439       H  0.62730005  0.89560310  0.49001005     0.18860
H1440       H  0.63497239  0.88412030  0.38297719     0.18870
C1441       C  0.63294959  0.87686300  0.16450420    -0.06970
C1442       C  0.61657749  0.89745766  0.15536307    -0.18090
C1443       C  0.60197159  0.91142137  0.17557202     0.10230
C1444       C  0.60500321  0.90561149  0.20559550    -0.06890
C1445       C  0.62454310  0.88803235  0.21466710    -0.18130
C1446       C  0.63815059  0.87321673  0.19448756     0.10260
S1447       S  0.57917159  0.93583552  0.16276787    -0.33090
S1448       S  0.66111300  0.84947594  0.20829165    -0.33100
H1449       H  0.67681218  0.84985989  0.18315203     0.28270
H1450       H  0.58495200  0.93419448  0.13273705     0.28270
H1451       H  0.61357594  0.90117328  0.13224459     0.18860
H1452       H  0.62795699  0.88420289  0.23772380     0.18870
C1453       C  0.52538668  0.83059432  0.00492918    -0.06970
C1454       C  0.50797706  0.83267614  0.02788296    -0.18090
C1455       C  0.49680271  0.80909045  0.03675924     0.10230
C1456       C  0.49258600  0.78959519  0.01552744    -0.06890
C1457       C  0.50154094  0.79413311  0.98680706    -0.18130
C1458       C  0.51803085  0.81522613  0.98118308     0.10260
S1459       S  0.49852095  0.80222805  0.07535296    -0.33090
S1460       S  0.53496292  0.81745745  0.44695711    -0.33100
H1461       H  0.53045945  0.79147254  0.43839774     0.28270
H1462       H  0.51059435  0.77783392  0.07195739     0.28270
H1463       H  0.51229269  0.84682983  0.04469029     0.18860
H1464       H  0.49788139  0.77959195  0.47016855     0.18870
C1465       C  0.96663435  0.01082821  0.49021879    -0.06970
C1466       C  0.96863809  0.01269751  0.02078488    -0.18090
C1467       C  0.96663361  0.03675323  0.03500448     0.10230
C1468       C  0.96168973  0.05985126  0.01843236    -0.06890
C1469       C  0.95921937  0.05795739  0.48782825    -0.18130
C1470       C  0.96170495  0.03411136  0.47363977     0.10260
S1471       S  0.97294266  0.03694263  0.07377745    -0.33090
S1472       S  0.96095692  0.03583164  0.43414708    -0.33100
H1473       H  0.98456588  0.02254154  0.43125199     0.28270
H1474       H  0.94885999  0.04803146  0.08043799     0.28270
H1475       H  0.97314141  0.99532797  0.03380703     0.18860
H1476       H  0.95588450  0.07551920  0.47464681     0.18870
C1477       C  0.05825168  0.55948784  0.48774041    -0.06970
C1478       C  0.05676211  0.53809819  0.46879605    -0.18090
C1479       C  0.05617366  0.51221540  0.47969916     0.10230
C1480       C  0.05586995  0.50750580  0.01016178    -0.06890
C1481       C  0.05905137  0.52886784  0.02893585    -0.18130
C1482       C  0.06072521  0.55456468  0.01808903     0.10260
S1483       S  0.05635631  0.48636488  0.45324620    -0.33090
S1484       S  0.06652536  0.58002114  0.04431908    -0.33100
H1485       H  0.08126644  0.59590776  0.02518015     0.28270
H1486       H  0.07221034  0.46971486  0.96968428     0.28270
H1487       H  0.05545035  0.54155028  0.44533337     0.18860
H1488       H  0.05982664  0.52567216  0.05246677     0.18870
C1489       C  0.95519277  0.79954758  0.38210717    -0.06970
C1490       C  0.95298290  0.78291511  0.40642086    -0.18090
C1491       C  0.97584386  0.77082385  0.41521259     0.10230
C1492       C  0.99502254  0.76608271  0.39371988    -0.06890
C1493       C  0.98998164  0.77365238  0.36446419    -0.18130
C1494       C  0.96928582  0.79020676  0.35830549     0.10260
S1495       S  0.98209010  0.77133396  0.45382226    -0.33090
S1496       S  0.96696462  0.80526424  0.32256743    -0.33100
H1497       H  0.94235953  0.81598321  0.32748031     0.28270
H1498       H  0.00500844  0.78576093  0.45026784     0.28270
H1499       H  0.93936920  0.78829921  0.42331513     0.18860
H1500       H  0.00318208  0.76885156  0.34708291     0.18870
C1501       C  0.73356153  0.81875836  0.12192737    -0.06970
C1502       C  0.74395478  0.79549824  0.13370856    -0.18090
C1503       C  0.76867787  0.79495272  0.14572911     0.10230
C1504       C  0.78352228  0.81810229  0.14592690    -0.06890
C1505       C  0.77290319  0.84162917  0.13514307    -0.18130
C1506       C  0.74797058  0.84223472  0.12326649     0.10260
S1507       S  0.78044893  0.76407047  0.16013643    -0.33090
S1508       S  0.73556735  0.87343866  0.11054496    -0.33100
H1509       H  0.70959800  0.86798697  0.11712441     0.28270
H1510       H  0.79356353  0.77508883  0.18393709     0.28270
H1511       H  0.73294348  0.77744967  0.13292788     0.18860
H1512       H  0.78425732  0.85946465  0.13547663     0.18870
C1513       C  0.97125117  0.70836604  0.32875305    -0.06970
C1514       C  0.95219257  0.72429617  0.34137160    -0.18090
C1515       C  0.93661112  0.74094393  0.32414527     0.10230
C1516       C  0.94065556  0.74234078  0.29366412    -0.06890
C1517       C  0.95895982  0.72563480  0.28094691    -0.18130
C1518       C  0.97411200  0.70853574  0.29809275     0.10260
S1519       S  0.91175447  0.75937971  0.34225411    -0.33090
S1520       S  0.99606514  0.68692740  0.27961867    -0.33100
H1521       H  0.99648271  0.66715715  0.30145542     0.28270
H1522       H  0.89529165  0.76250770  0.31796525     0.28270
H1523       H  0.94965133  0.72402277  0.36496315     0.18860
H1524       H  0.96139769  0.72586089  0.25734211     0.18870
C1525       C  0.92953183  0.73240828  0.08287180    -0.06970
C1526       C  0.94799545  0.71362485  0.09261239    -0.18090
C1527       C  0.96287258  0.69846275  0.07311216     0.10230
C1528       C  0.96015538  0.70210374  0.04246601    -0.06890
C1529       C  0.94037568  0.71951399  0.03282160    -0.18130
C1530       C  0.92515088  0.73427835  0.05234166     0.10260
S1531       S  0.98690204  0.67698690  0.08873977    -0.33090
S1532       S  0.90269479  0.75750499  0.03675607    -0.33100
H1533       H  0.88265595  0.75051441  0.05607762     0.28270
H1534       H  0.98043110  0.65585776  0.07076197     0.28270
H1535       H  0.95191164  0.71166824  0.11588490     0.18860
H1536       H  0.93762736  0.72281214  0.00949549     0.18870
C1537       C  0.91372194  0.92125067  0.32777602    -0.06970
C1538       C  0.89603213  0.90264472  0.33907487    -0.18090
C1539       C  0.88305062  0.88488674  0.32069166     0.10230
C1540       C  0.88676421  0.88611377  0.28998544    -0.06890
C1541       C  0.90198954  0.90672313  0.27855001    -0.18130
C1542       C  0.91559741  0.92390034  0.29692437     0.10260
S1543       S  0.86409158  0.85934213  0.33787688    -0.33090
S1544       S  0.93712964  0.94724903  0.27978614    -0.33100
H1545       H  0.93806626  0.96441194  0.30358277     0.28270
H1546       H  0.84909065  0.85381156  0.31302078     0.28270
H1547       H  0.89434263  0.89992244  0.36257143     0.18860
H1548       H  0.90540969  0.90787403  0.25512906     0.18870
C1549       C  0.89203278  0.86348760  0.07322665    -0.06970
C1550       C  0.91633587  0.85405588  0.06535873    -0.18090
C1551       C  0.93457292  0.87044772  0.05216780     0.10230
C1552       C  0.92694737  0.89556960  0.04194399    -0.06890
C1553       C  0.90188387  0.90447591  0.04795724    -0.18130
C1554       C  0.88473144  0.88910149  0.06455552     0.10260
S1555       S  0.96762221  0.85924314  0.05048086    -0.33090
S1556       S  0.85377809  0.90291336  0.07347979    -0.33100
H1557       H  0.84093902  0.87882502  0.07741501     0.28270
H1558       H  0.96340480  0.83327499  0.06015491     0.28270
H1559       H  0.92202281  0.83452631  0.07212241     0.18860
H1560       H  0.89570839  0.92353184  0.03975184     0.18870
C1561       C  0.23638058  0.75598259  0.13326112    -0.06970
C1562       C  0.24753312  0.73136712  0.12834522    -0.18090
C1563       C  0.27205511  0.72932759  0.11568241     0.10230
C1564       C  0.28594694  0.75231436  0.10841279    -0.06890
C1565       C  0.27480905  0.77684442  0.11359229    -0.18130
C1566       C  0.25033377  0.77893027  0.12598938     0.10260
S1567       S  0.28538362  0.69715222  0.11093663    -0.33090
S1568       S  0.23858053  0.81141160  0.13338355    -0.33100
H1569       H  0.22699829  0.80457588  0.16027940     0.28270
H1570       H  0.28770801  0.70057043  0.08043534     0.28270
H1571       H  0.23701375  0.71368299  0.13420732     0.18860
H1572       H  0.28551790  0.79458430  0.10841572     0.18870
C1573       C  0.09069135  0.83514068  0.29676907    -0.06970
C1574       C  0.08860036  0.86219307  0.28996571    -0.18090
C1575       C  0.07099839  0.87832175  0.30443494     0.10230
C1576       C  0.05476148  0.86731604  0.32603202    -0.06890
C1577       C  0.05715213  0.84062836  0.33342340    -0.18130
C1578       C  0.07529705  0.82468380  0.31980116     0.10260
S1579       S  0.06952292  0.91246497  0.29364149    -0.33090
S1580       S  0.07855580  0.79172233  0.33418859    -0.33100
H1581       H  0.10552403  0.79097387  0.33085871     0.28270
H1582       H  0.04356061  0.91634674  0.30127814     0.28270
H1583       H  0.10001627  0.87080048  0.27242209     0.18860
H1584       H  0.04549042  0.83234317  0.35099959     0.18870
C1585       C  0.08265258  0.83317325  0.08283880    -0.06970
C1586       C  0.08623885  0.82610420  0.05343627    -0.18090
C1587       C  0.07221470  0.83811396  0.03003575     0.10230
C1588       C  0.05367375  0.85829249  0.03518282    -0.06890
C1589       C  0.05112241  0.86627398  0.06448283    -0.18130
C1590       C  0.06521766  0.85429596  0.08788548     0.10260
S1591       S  0.07928913  0.82682426  0.99379421    -0.33090
S1592       S  0.06021123  0.86737953  0.12388713    -0.33100
H1593       H  0.08556456  0.86277692  0.13373483     0.28270
H1594       H  0.05784414  0.80918483  0.49419260     0.28270
H1595       H  0.09938919  0.81024790  0.04861939     0.18860
H1596       H  0.03754459  0.88170885  0.06944786     0.18870
C1597       C  0.12516477  0.70734255  0.08101262    -0.06970
C1598       C  0.09934090  0.71411895  0.07628104    -0.18090
C1599       C  0.08214853  0.69675294  0.06342707     0.10230
C1600       C  0.09179182  0.67362673  0.05088605    -0.06890
C1601       C  0.11792841  0.66706203  0.05486784    -0.18130
C1602       C  0.13447955  0.68322556  0.07076559     0.10260
S1603       S  0.04820223  0.70481354  0.06343979    -0.33090
S1604       S  0.16727925  0.67251673  0.07640488    -0.33100
H1605       H  0.17788636  0.69764059  0.07992654     0.28270
H1606       H  0.04976377  0.72740012  0.58053750     0.28270
H1607       H  0.09210437  0.73241453  0.08449519     0.18860
H1608       H  0.12555009  0.64945480  0.04511340     0.18870
C1609       C  0.14667712  0.69232847  0.29314784    -0.06970
C1610       C  0.12740104  0.67531798  0.28274375    -0.18090
C1611       C  0.11081120  0.66147012  0.30203913     0.10230
C1612       C  0.11391566  0.66350435  0.33273791    -0.06890
C1613       C  0.13516785  0.67791887  0.34300565    -0.18130
C1614       C  0.15123202  0.69243512  0.32372385     0.10260
S1615       S  0.08412277  0.64396039  0.28625142    -0.33090
S1616       S  0.17575553  0.71282731  0.33956235    -0.33100
H1617       H  0.19091274  0.71497334  0.31407995     0.28270
H1618       H  0.07969596  0.62740691  0.31070389     0.28270
H1619       H  0.12319613  0.67504914  0.25950486     0.18860
H1620       H  0.13769852  0.68015337  0.36641914     0.18870
C1621       C  0.02426115  0.73760586  0.23786936    -0.06970
C1622       C  0.00851792  0.73565712  0.21325477    -0.18090
C1623       C  0.99733857  0.75913638  0.20373184     0.10230
C1624       C  0.99201699  0.77856322  0.22475836    -0.06890
C1625       C  0.99883461  0.77349752  0.25424405    -0.18130
C1626       C  0.01483906  0.75235715  0.26112709     0.10260
S1627       S  0.99901213  0.76559089  0.16500158    -0.33090
S1628       S  0.02884704  0.75007610  0.29711672    -0.33100
H1629       H  0.03993253  0.72526401  0.29283992     0.28270
H1630       H  0.01150935  0.78986746  0.16806582     0.28270
H1631       H  0.01404076  0.72170672  0.19671466     0.18860
H1632       H  0.99385996  0.78703532  0.27130953     0.18870
Zr1633     Zr  0.14721028  0.77916596  0.63794637     2.17510
O1634       O  0.16840232  0.81259030  0.60768941    -0.52170
O1635       O  0.13961277  0.74789634  0.59929220    -0.75380
O1636       O  0.19289092  0.76956722  0.63198563    -0.82160
O1637       O  0.07960886  0.81161712  0.62989242    -0.83910
O1638       O  0.20770664  0.74701674  0.67238641    -0.79530
O1639       O  0.11761821  0.80680522  0.60584038    -0.91170
O1640       O  0.14515080  0.71194799  0.62677176    -0.77130
O1641       O  0.15703726  0.73818880  0.66313777    -0.86620
O1642       O  0.10757553  0.75624048  0.64415556    -0.86310
O1643       O  0.16772999  0.78738136  0.68486487    -0.73070
O1644       O  0.12198348  0.80731803  0.66786073    -0.85200
Zr1645     Zr  0.11092868  0.75626452  0.74518301     2.26420
Zr1646     Zr  0.17516491  0.74597307  0.71079565     2.06270
Zr1647     Zr  0.08229948  0.78379129  0.67382128     2.10050
Zr1648     Zr  0.11741065  0.71592556  0.66881493     1.78760
O1649       O  0.05238924  0.81878444  0.68587759    -0.94010
O1650       O  0.13993677  0.67458955  0.67727814    -0.41810
O1651       O  0.09277231  0.74415529  0.69877943    -0.78450
O1652       O  0.13395900  0.72495827  0.71609906    -0.97130
O1653       O  0.15181889  0.77648658  0.74008432    -0.90440
O1654       O  0.10123404  0.79607511  0.71888529    -0.93280
C1655       C  0.13903041  0.72296298  0.60259143     1.00470
C1656       C  0.09432723  0.81628568  0.60776270     1.13400
C1657       C  0.21052160  0.75744949  0.64673972     1.04180
O1658       O  0.20845986  0.71239326  0.71396888    -0.95430
O1659       O  0.16860067  0.71283426  0.75127226    -0.91180
O1660       O  0.14214653  0.73661023  0.77861661    -0.84320
C1661       C  0.15397871  0.71523219  0.77396638     1.10820
O1662       O  0.17170870  0.84738380  0.68984349    -0.97410
Zr1663     Zr  0.14244389  0.81640324  0.71392157     1.88940
O1664       O  0.09985870  0.79380593  0.77541092    -0.74060
O1665       O  0.20469916  0.77054278  0.74139427    -0.53320
O1666       O  0.17788546  0.82489802  0.74757309    -0.98000
O1667       O  0.12336079  0.85934273  0.70414045    -0.55220
O1668       O  0.12144197  0.82960133  0.75889821    -0.74570
C1669       C  0.10562408  0.81827059  0.77661361     0.97770
O1670       O  0.09109382  0.73682704  0.78885451    -0.63390
O1671       O  0.05114211  0.76492155  0.64007599    -0.58200
O1672       O  0.06886329  0.73822740  0.74514122    -0.94880
O1673       O  0.05198510  0.76176195  0.70710077    -0.93310
O1674       O  0.08211924  0.70306045  0.63693067    -0.93660
O1675       O  0.09055640  0.68039026  0.68790567    -0.92450
C1676       C  0.05002538  0.74591906  0.72948550     1.16610
H1677       H  0.09895653  0.75360480  0.62577307     0.32560
H1678       H  0.13288554  0.70771275  0.72490659     0.43410
H1679       H  0.08830786  0.80717997  0.72739264     0.36930
H1680       H  0.18417089  0.79575147  0.68143247     0.33410
H1681       H  0.13838720  0.66522439  0.65851645     0.25200
H1682       H  0.21069666  0.75763433  0.75636041     0.31140
H1683       H  0.17301614  0.84124947  0.75756481     0.37050
H1684       H  0.08716696  0.68561099  0.62965876     0.31510
H1685       H  0.05741047  0.76831412  0.61988875     0.30390
H1686       H  0.06309353  0.83485636  0.68579795     0.32070
H1687       H  0.12848746  0.87017652  0.72098996     0.31030
H1688       H  0.08549879  0.68609713  0.70772692     0.35030
H1689       H  0.09510235  0.71787587  0.78858914     0.27770
H1690       H  0.17817501  0.80297066  0.59265499     0.32000
H1691       H  0.17577906  0.86074347  0.70465067     0.34850
H1692       H  0.05271491  0.74572200  0.64303319     0.27460
H1693       H  0.10095788  0.74365415  0.80566593     0.40330
H1694       H  0.20154522  0.69765328  0.70249030     0.30390
H1695       H  0.15836883  0.67952383  0.67847334     0.38000
H1696       H  0.10459077  0.85660555  0.70669288     0.29850
H1697       H  0.21993202  0.77373383  0.72876832     0.29920
H1698       H  0.18166742  0.82034636  0.62053553     0.30180
Zr1699     Zr  0.87190797  0.79424268  0.63678189     2.17510
O1700       O  0.84584924  0.76365837  0.60880829    -0.52170
O1701       O  0.87666323  0.82379532  0.59479152    -0.75380
O1702       O  0.82622869  0.80464056  0.63863366    -0.82160
O1703       O  0.93909618  0.76130413  0.62048579    -0.83910
O1704       O  0.81677610  0.82880178  0.67907408    -0.79530
O1705       O  0.89691377  0.76074429  0.60689117    -0.91170
O1706       O  0.87549697  0.86002044  0.62079883    -0.77130
O1707       O  0.86732278  0.83626238  0.66045216    -0.86620
O1708       O  0.91270218  0.81527268  0.63558868    -0.86310
O1709       O  0.85673220  0.78867150  0.68706454    -0.73070
O1710       O  0.89857724  0.76630372  0.66546015    -0.85200
Zr1711     Zr  0.92232204  0.82011731  0.73649135     2.26420
Zr1712     Zr  0.85448012  0.83083886  0.71092615     2.06270
Zr1713     Zr  0.93969855  0.78719433  0.66351959     2.10050
Zr1714     Zr  0.90813267  0.85680611  0.65845185     1.78760
O1715       O  0.95107492  0.74195705  0.67680897    -0.94010
O1716       O  0.88853934  0.89990587  0.66347781    -0.41810
O1717       O  0.93575693  0.82867339  0.68665690    -0.78450
O1718       O  0.89637535  0.85056875  0.70836984    -0.97130
O1719       O  0.88040846  0.80109087  0.73933653    -0.90440
O1720       O  0.92583001  0.77900747  0.71234516    -0.93280
C1721       C  0.87888480  0.84866131  0.59658208     1.00470
C1722       C  0.92083175  0.75283386  0.60443083     1.13400
C1723       C  0.81073899  0.81741902  0.65507418     1.04180
O1724       O  0.82511300  0.86793831  0.71367177    -0.95430
O1725       O  0.86554908  0.86266770  0.75036334    -0.91180
O1726       O  0.90006284  0.84476856  0.77377452    -0.84320
C1727       C  0.88304518  0.86279165  0.77071656     1.10820
O1728       O  0.85131825  0.72947433  0.69766947    -0.97410
Zr1729     Zr  0.88391653  0.76005378  0.71501711     1.88940
O1730       O  0.93019218  0.78416848  0.77242742    -0.74060
O1731       O  0.82703021  0.80867382  0.74676171    -0.53320
O1732       O  0.85209068  0.75585453  0.75402448    -0.98000
O1733       O  0.89919810  0.71523651  0.70885113    -0.55220
O1734       O  0.91015520  0.74734332  0.75648437    -0.74570
C1735       C  0.92549028  0.75931638  0.77365834     0.97770
O1736       O  0.94994071  0.85334552  0.75786239    -0.63390
O1737       O  0.97174243  0.80092703  0.62687402    -0.58200
O1738       O  0.96816053  0.81543155  0.73824344    -0.94880
O1739       O  0.97272211  0.80914196  0.69113519    -0.93310
O1740       O  0.94125991  0.86535922  0.62185378    -0.93660
O1741       O  0.93607661  0.89316711  0.67158172    -0.92450
C1742       C  0.97838322  0.80294355  0.71743800     1.16610
H1743       H  0.91965239  0.81676433  0.61611310     0.32560
H1744       H  0.89769128  0.86794540  0.71624205     0.43410
H1745       H  0.93879480  0.76781902  0.72105517     0.36930
H1746       H  0.83979681  0.78083956  0.68699039     0.33410
H1747       H  0.88858652  0.90762581  0.64340871     0.25200
H1748       H  0.81989662  0.82298700  0.75869437     0.31140
H1749       H  0.85800284  0.74070129  0.76611052     0.37050
H1750       H  0.93763241  0.88337159  0.61451492     0.31510
H1751       H  0.96229311  0.80400397  0.60826895     0.30390
H1752       H  0.93844479  0.73080630  0.66655524     0.32070
H1753       H  0.89225491  0.70527157  0.72590740     0.31030
H1754       H  0.94157171  0.88904122  0.69194060     0.35030
H1755       H  0.94105256  0.87026742  0.75424998     0.27770
H1756       H  0.83570513  0.77460018  0.59484946     0.32000
H1757       H  0.84596911  0.71899653  0.71508618     0.34850
H1758       H  0.97715078  0.81867262  0.63285406     0.27460
H1759       H  0.94868608  0.85013922  0.77923112     0.40330
H1760       H  0.83192047  0.88087197  0.69922499     0.30390
H1761       H  0.87014395  0.89624555  0.66763011     0.38000
H1762       H  0.91799830  0.71592871  0.71252466     0.29850
H1763       H  0.81216313  0.80231305  0.73523977     0.29920
H1764       H  0.83307786  0.75636126  0.62284733     0.30180
Zr1765     Zr  0.02477408  0.64681302  0.98924190     2.17510
O1766       O  0.99619467  0.61804262  0.01744378    -0.52170
O1767       O  0.05310968  0.65599001  0.53034553    -0.75380
O1768       O  0.04075943  0.60206533  0.99133879    -0.82160
O1769       O  0.98558784  0.71173206  0.50122451    -0.83910
O1770       O  0.06365360  0.59213266  0.95024868    -0.79530
O1771       O  0.99090134  0.67039498  0.51956828    -0.91170
O1772       O  0.08849618  0.65715961  0.50338931    -0.77130
O1773       O  0.06660481  0.64554921  0.96554377    -0.86620
O1774       O  0.04114315  0.69015328  0.98718588    -0.86310
O1775       O  0.02125769  0.62887775  0.94012055    -0.73070
O1776       O  0.99505970  0.66961712  0.95872436    -0.85200
Zr1777     Zr  0.04645974  0.69659015  0.88653850     2.26420
Zr1778     Zr  0.06311379  0.62970966  0.91625663     2.06270
Zr1779     Zr  0.01122848  0.71343901  0.95802801     2.10050
Zr1780     Zr  0.08249401  0.68902709  0.96459253     1.78760
O1781       O  0.96586079  0.72030535  0.94517481    -0.94010
O1782       O  0.12703955  0.67457939  0.95988340    -0.41810
O1783       O  0.05261931  0.71349953  0.93501043    -0.78450
O1784       O  0.07834912  0.67408053  0.91581560    -0.97130
O1785       O  0.03211849  0.65216701  0.88625673    -0.90440
O1786       O  0.00565427  0.69644702  0.91063675    -0.93280
C1787       C  0.07725633  0.66035842  0.52775376     1.00470
C1788       C  0.98025742  0.69367611  0.51995682     1.13400
C1789       C  0.05423187  0.58644174  0.97569519     1.04180
O1790       O  0.10319300  0.60487925  0.91646148    -0.95430
O1791       O  0.09275602  0.64226415  0.87478315    -0.91180
O1792       O  0.07323842  0.67597075  0.85024120    -0.84320
C1793       C  0.09166582  0.65946528  0.85348759     1.10820
O1794       O  0.96400680  0.61666861  0.92831395    -0.97410
Zr1795     Zr  0.99112284  0.65243830  0.91004872     1.88940
O1796       O  0.01260705  0.69907833  0.84891766    -0.74060
O1797       O  0.04519891  0.59781799  0.88277037    -0.53320
O1798       O  0.99141724  0.61932149  0.87222004    -0.98000
O1799       O  0.94554984  0.66324347  0.91525431    -0.55220
O1800       O  0.97729911  0.67810952  0.86750880    -0.74570
C1801       C  0.98834496  0.69358722  0.84896119     0.97770
O1802       O  0.07784589  0.72771299  0.86684656    -0.63390
O1803       O  0.02436267  0.74638044  0.99376261    -0.58200
O1804       O  0.03004017  0.74001278  0.87951201    -0.94880
O1805       O  0.02663272  0.74849094  0.92665880    -0.93310
O1806       O  0.08700050  0.72245697  0.00172351    -0.93660
O1807       O  0.11401752  0.72223464  0.95032791    -0.92450
C1808       C  0.01905470  0.75186773  0.90039247     1.16610
H1809       H  0.04178477  0.69819379  0.00604974     0.32560
H1810       H  0.09530727  0.67648832  0.90753768     0.43410
H1811       H  0.99338359  0.70809549  0.90139886     0.36930
H1812       H  0.01531291  0.61095833  0.94159318     0.33410
H1813       H  0.13443247  0.67625764  0.97979552     0.25200
H1814       H  0.06045541  0.58973555  0.87353761     0.31140
H1815       H  0.97673047  0.62401039  0.85926505     0.37050
H1816       H  0.10482035  0.72027578  0.00921113     0.31510
H1817       H  0.03322835  0.76052772  0.98260831     0.30390
H1818       H  0.95618483  0.70650081  0.95598445     0.32070
H1819       H  0.93703902  0.65546018  0.89800927     0.31030
H1820       H  0.11037713  0.72588382  0.92933724     0.35030
H1821       H  0.09487585  0.71923407  0.86959125     0.27770
H1822       H  0.00723803  0.61001960  0.53294502     0.32000
H1823       H  0.95487665  0.60985888  0.91095368     0.34850
H1824       H  0.00885698  0.75457696  0.00226387     0.27460
H1825       H  0.07482771  0.72775932  0.84543278     0.40330
H1826       H  0.11414670  0.61360890  0.93116477     0.30390
H1827       H  0.12581838  0.65544013  0.95692003     0.38000
H1828       H  0.94446325  0.68238263  0.91152506     0.29850
H1829       H  0.03805802  0.58381270  0.89567758     0.29920
H1830       H  0.99187790  0.60346044  0.00424470     0.30180
Zr1831     Zr  0.99658222  0.92224425  0.98281767     2.17510
O1832       O  0.02827946  0.94581473  0.01181200    -0.52170
O1833       O  0.96688463  0.91128779  0.52235891    -0.75380
O1834       O  0.98314766  0.96753770  0.99059878    -0.82160
O1835       O  0.03105774  0.85488122  0.98925047    -0.83910
O1836       O  0.96106321  0.98178935  0.95029014    -0.79530
O1837       O  0.02603584  0.89280000  0.51340763    -0.91170
O1838       O  0.93104749  0.91639216  0.99594071    -0.77130
O1839       O  0.95612247  0.93138093  0.95815828    -0.86620
O1840       O  0.97545742  0.88128007  0.97613829    -0.86310
O1841       O  0.00434785  0.94439283  0.93603505    -0.73070
O1842       O  0.02490239  0.89781148  0.95228689    -0.85200
Zr1843     Zr  0.97620476  0.88700023  0.87539215     2.26420
Zr1844     Zr  0.96350612  0.95086507  0.91052214     2.06270
Zr1845     Zr  0.00312137  0.85674146  0.94602350     2.10050
Zr1846     Zr  0.93558432  0.89055287  0.95249174     1.78760
O1847       O  0.03765437  0.82695064  0.93229883    -0.94010
O1848       O  0.89470518  0.91288937  0.94389577    -0.41810
O1849       O  0.96426466  0.86741609  0.92175433    -0.78450
O1850       O  0.94428733  0.90844258  0.90502552    -0.97130
O1851       O  0.99463345  0.92902860  0.88079216    -0.90440
O1852       O  0.01532192  0.87753678  0.90141531    -0.93280
C1853       C  0.94241241  0.90952277  0.51967867     1.00470
C1854       C  0.03596836  0.86942924  0.51107224     1.13400
C1855       C  0.97016315  0.98502416  0.97615127     1.04180
O1856       O  0.92937870  0.98341105  0.90558108    -0.95430
O1857       O  0.93167297  0.94380862  0.87008715    -0.91180
O1858       O  0.95733191  0.91958249  0.84260785    -0.84320
C1859       C  0.93540761  0.92985388  0.84715950     1.10820
O1860       O  0.06345159  0.95008852  0.93057331    -0.97410
Zr1861     Zr  0.03392312  0.92001156  0.90656567     1.88940
O1862       O  0.01372210  0.87618474  0.84559647    -0.74060
O1863       O  0.98749417  0.98310168  0.88162570    -0.53320
O1864       O  0.04197055  0.95667977  0.87288750    -0.98000
O1865       O  0.07632485  0.90130321  0.91666382    -0.55220
O1866       O  0.04800716  0.89979862  0.86135710    -0.74570
C1867       C  0.03753954  0.88303462  0.84441895     0.97770
O1868       O  0.95941170  0.86793504  0.83067476    -0.63390
O1869       O  0.98650087  0.82378872  0.98043047    -0.58200
O1870       O  0.95750656  0.84484369  0.87505163    -0.94880
O1871       O  0.97973801  0.82683064  0.91324205    -0.93310
O1872       O  0.92437476  0.85435537  0.98558210    -0.93660
O1873       O  0.90187801  0.86136778  0.93518199    -0.92450
C1874       C  0.96431790  0.82537640  0.89083015     1.16610
H1875       H  0.97286035  0.87175005  0.99417712     0.32560
H1876       H  0.92747940  0.90689448  0.89623219     0.43410
H1877       H  0.02684676  0.86484310  0.89314113     0.36930
H1878       H  0.01186513  0.96136641  0.93965706     0.33410
H1879       H  0.88515518  0.91069211  0.96255906     0.25200
H1880       H  0.97433730  0.99167954  0.86897410     0.31140
H1881       H  0.05817139  0.95212372  0.86270459     0.37050
H1882       H  0.90797547  0.85977081  0.99478349     0.31510
H1883       H  0.99075970  0.82958176  0.00043940     0.30390
H1884       H  0.03121547  0.81791387  0.91469505     0.32070
H1885       H  0.08692796  0.90604141  0.89933322     0.31030
H1886       H  0.90725004  0.85689007  0.91505388     0.35030
H1887       H  0.94082760  0.87227031  0.82987483     0.27770
H1888       H  0.01872882  0.95243856  0.52883537     0.32000
H1889       H  0.07687604  0.95441138  0.91585472     0.34850
H1890       H  0.96750856  0.82528355  0.97904211     0.27460
H1891       H  0.96730011  0.87825087  0.81444117     0.40330
H1892       H  0.91505471  0.97635756  0.91768884     0.30390
H1893       H  0.89925606  0.93173691  0.94299016     0.38000
H1894       H  0.07376997  0.88212146  0.91528700     0.29850
H1895       H  0.99242432  0.99667536  0.89584523     0.29920
H1896       H  0.03299261  0.96141386  0.99975829     0.30180
Zr1897     Zr  0.64482948  0.79713307  0.61469550     2.17510
O1898       O  0.66437815  0.76795805  0.65138425    -0.52170
O1899       O  0.63857260  0.83325396  0.64857317    -0.75380
O1900       O  0.69032879  0.80573920  0.62183881    -0.82160
O1901       O  0.57822441  0.76264140  0.62138105    -0.83910
O1902       O  0.70657381  0.82682321  0.58136739    -0.79530
O1903       O  0.61545756  0.76929128  0.64636714    -0.91170
O1904       O  0.64471480  0.86643276  0.61698374    -0.77130
O1905       O  0.65487358  0.83648662  0.58701462    -0.86620
O1906       O  0.60489999  0.81886242  0.60607325    -0.86310
O1907       O  0.66704903  0.78569656  0.56972669    -0.73070
O1908       O  0.62106680  0.76693279  0.58566988    -0.85200
Zr1909     Zr  0.61252032  0.81336124  0.50471642     2.26420
Zr1910     Zr  0.67526741  0.82576678  0.54157669     2.06270
Zr1911     Zr  0.58125927  0.78938528  0.57653005     2.10050
Zr1912     Zr  0.61489161  0.85756651  0.57833750     1.78760
O1913       O  0.55303152  0.75274537  0.56520710    -0.94010
O1914       O  0.63262489  0.90079042  0.56682641    -0.41810
O1915       O  0.59193726  0.82769721  0.54895329    -0.78450
O1916       O  0.63400284  0.84593140  0.53325225    -0.97130
O1917       O  0.65315249  0.79354915  0.51328808    -0.90440
O1918       O  0.60186387  0.77503756  0.53330941    -0.93280
C1919       C  0.64031203  0.85789471  0.64275857     1.00470
C1920       C  0.59258123  0.75898945  0.64412002     1.13400
C1921       C  0.70842655  0.81744341  0.60761688     1.04180
O1922       O  0.70864905  0.85920432  0.53783826    -0.95430
O1923       O  0.66982413  0.85714331  0.49930467    -0.91180
O1924       O  0.64491201  0.83108829  0.97181414    -0.84320
C1925       C  0.65577787  0.85309601  0.97591960     1.10820
O1926       O  0.67162980  0.72516931  0.56776611    -0.97410
Zr1927     Zr  0.64276012  0.75498320  0.54123854     1.88940
O1928       O  0.60067889  0.77409736  0.97677268    -0.74060
O1929       O  0.70560497  0.79979414  0.51363790    -0.53320
O1930       O  0.67857102  0.74497988  0.50877498    -0.98000
O1931       O  0.62367216  0.71260737  0.55379287    -0.55220
O1932       O  0.62186722  0.73931872  0.49667127    -0.74570
C1933       C  0.60605140  0.74952418  0.97779214     0.97770
O1934       O  0.60268532  0.83160146  0.45616145    -0.63390
O1935       O  0.54795246  0.80841309  0.60727282    -0.58200
O1936       O  0.57030626  0.83060097  0.50116154    -0.94880
O1937       O  0.55214882  0.80894205  0.53975267    -0.93310
O1938       O  0.58009715  0.86762109  0.61241190    -0.93660
O1939       O  0.58716138  0.89021088  0.55467684    -0.92450
C1940       C  0.55093169  0.82332019  0.51606319     1.16610
H1941       H  0.59617753  0.82231342  0.62427722     0.32560
H1942       H  0.63312835  0.86271477  0.52340735     0.43410
H1943       H  0.58901821  0.76348993  0.52538875     0.36930
H1944       H  0.68335687  0.77756232  0.57460001     0.33410
H1945       H  0.63180272  0.91061370  0.58532038     0.25200
H1946       H  0.71048150  0.81132564  0.49686724     0.31140
H1947       H  0.67350074  0.72853897  0.49907223     0.37050
H1948       H  0.57511964  0.88605611  0.60834155     0.31510
H1949       H  0.55403653  0.80684721  0.62779921     0.30390
H1950       H  0.56338392  0.73691606  0.56991131     0.32070
H1951       H  0.62874613  0.70091764  0.53767765     0.31030
H1952       H  0.58460288  0.88371507  0.53454438     0.35030
H1953       H  0.58998114  0.81941283  0.44770679     0.27770
H1954       H  0.67226138  0.77954974  0.66611542     0.32000
H1955       H  0.67612717  0.71127837  0.55376046     0.34850
H1956       H  0.54842365  0.82743462  0.60265301     0.27460
H1957       H  0.59334991  0.84833144  0.45879314     0.40330
H1958       H  0.70125310  0.87456494  0.54782179     0.30390
H1959       H  0.65125535  0.89765148  0.56369474     0.38000
H1960       H  0.60490441  0.71524351  0.55103915     0.29850
H1961       H  0.72126621  0.79894598  0.52605995     0.29920
H1962       H  0.67908257  0.75948233  0.64146547     0.30180
Zr1963     Zr  0.37486091  0.77576830  0.61106308     2.17510
O1964       O  0.35070242  0.80867166  0.63778743    -0.52170
O1965       O  0.38012159  0.74631075  0.65287002    -0.75380
O1966       O  0.32921715  0.76518363  0.61297113    -0.82160
O1967       O  0.44368838  0.80517678  0.62215539    -0.83910
O1968       O  0.31708296  0.74079336  0.57358613    -0.79530
O1969       O  0.40318735  0.80781493  0.64023654    -0.91170
O1970       O  0.37721761  0.71010149  0.62691483    -0.77130
O1971       O  0.36843422  0.73336078  0.58855733    -0.86620
O1972       O  0.41511440  0.75382729  0.60987554    -0.86310
O1973       O  0.35671762  0.78029081  0.56179951    -0.73070
O1974       O  0.40012698  0.80250138  0.57963438    -0.85200
Zr1975     Zr  0.41913561  0.74779673  0.50815318     2.26420
Zr1976     Zr  0.35284553  0.73768927  0.53894016     2.06270
Zr1977     Zr  0.44074082  0.78054255  0.57898857     2.10050
Zr1978     Zr  0.40889320  0.71212991  0.58820444     1.78760
O1979       O  0.45108581  0.82602931  0.56535122    -0.94010
O1980       O  0.38916526  0.66893418  0.58493229    -0.41810
O1981       O  0.43525948  0.73899086  0.55695574    -0.78450
O1982       O  0.39482500  0.71791726  0.53896585    -0.97130
O1983       O  0.37717090  0.76688646  0.50817510    -0.90440
O1984       O  0.42401590  0.78887850  0.53163250    -0.93280
C1985       C  0.38155254  0.72139349  0.65100756     1.00470
C1986       C  0.42766631  0.81445263  0.64036531     1.13400
C1987       C  0.31259751  0.75235320  0.59794249     1.04180
O1988       O  0.32401876  0.70005883  0.53862083    -0.95430
O1989       O  0.36276471  0.70531336  0.49945410    -0.91180
O1990       O  0.39343160  0.72559702  0.97168338    -0.84320
C1991       C  0.37898214  0.70579577  0.97695069     1.10820
O1992       O  0.35022469  0.83896055  0.54938346    -0.97410
Zr1993     Zr  0.38230538  0.80825340  0.53126291     1.88940
O1994       O  0.42613191  0.78324816  0.97120787    -0.74060
O1995       O  0.32308813  0.75875212  0.50463640    -0.53320
O1996       O  0.34911524  0.81119611  0.49351266    -0.98000
O1997       O  0.39729259  0.85331231  0.53612967    -0.55220
O1998       O  0.40717304  0.82059265  0.48852439    -0.74570
C1999       C  0.42188681  0.80821054  0.97036995     0.97770
O2000       O  0.44503229  0.71208912  0.48908734    -0.63390
O2001       O  0.47444882  0.76490533  0.61287847    -0.58200
O2002       O  0.46381505  0.75688635  0.50062956    -0.94880
O2003       O  0.47162856  0.75908990  0.54794897    -0.93310
O2004       O  0.44311212  0.70489127  0.62401175    -0.93660
O2005       O  0.43633064  0.67506842  0.57625903    -0.92450
C2006       C  0.47647675  0.76642622  0.52179552     1.16610
H2007       H  0.42292170  0.75251504  0.62899756     0.32560
H2008       H  0.39586154  0.70037227  0.53150612     0.43410
H2009       H  0.43669767  0.79994670  0.52225745     0.36930
H2010       H  0.33981506  0.78815326  0.56294416     0.33410
H2011       H  0.38975596  0.66165461  0.60519054     0.25200
H2012       H  0.31690711  0.74433749  0.49216959     0.31140
H2013       H  0.35453327  0.82602612  0.48065821     0.37050
H2014       H  0.43962147  0.68724014  0.63247630     0.31510
H2015       H  0.46623792  0.76184224  0.63220037     0.30390
H2016       H  0.43987207  0.83710374  0.57757095     0.32070
H2017       H  0.39023683  0.86283760  0.51880187     0.31030
H2018       H  0.44301149  0.67933216  0.55642747     0.35030
H2019       H  0.44191684  0.69720683  0.50283244     0.27770
H2020       H  0.34142708  0.79886277  0.65344222     0.32000
H2021       H  0.34396420  0.84885826  0.53192455     0.34850
H2022       H  0.47879463  0.74710820  0.60609463     0.27460
H2023       H  0.43655041  0.70687736  0.47070658     0.40330
H2024       H  0.33147170  0.68765965  0.55325370     0.30390
H2025       H  0.37066787  0.67252366  0.58129502     0.38000
H2026       H  0.41608769  0.85263184  0.53248375     0.29850
H2027       H  0.30797170  0.76342462  0.51670750     0.29920
H2028       H  0.33708326  0.81486178  0.62409292     0.30180
Zr2029     Zr  0.49772820  0.64716158  0.76720714     2.17510
O2030       O  0.52965820  0.62347051  0.73878188    -0.52170
O2031       O  0.46794991  0.65818032  0.72767143    -0.75380
O2032       O  0.48406291  0.60207837  0.75913654    -0.82160
O2033       O  0.53284929  0.71418972  0.76034627    -0.83910
O2034       O  0.46184962  0.58813514  0.79948605    -0.79530
O2035       O  0.52579966  0.67660546  0.73565007    -0.91170
O2036       O  0.43172747  0.65415857  0.75343865    -0.77130
O2037       O  0.45729472  0.63824153  0.79182146    -0.86620
O2038       O  0.47702158  0.68820792  0.77382737    -0.86310
O2039       O  0.50558630  0.62522953  0.81412175    -0.73070
O2040       O  0.52661335  0.67132761  0.79751118    -0.85200
Zr2041     Zr  0.47773357  0.68296969  0.87450455     2.26420
Zr2042     Zr  0.46477396  0.61890733  0.83955826     2.06270
Zr2043     Zr  0.50521149  0.71252178  0.80365203     2.10050
Zr2044     Zr  0.43709469  0.67922776  0.79734532     1.78760
O2045       O  0.53941073  0.74238842  0.81812619    -0.94010
O2046       O  0.39631254  0.65690750  0.80650250    -0.41810
O2047       O  0.46638494  0.70189211  0.82774627    -0.78450
O2048       O  0.44575870  0.66142645  0.84488575    -0.97130
O2049       O  0.49597207  0.64081876  0.86923925    -0.90440
O2050       O  0.51705036  0.69216926  0.84885573    -0.93280
C2051       C  0.44348209  0.66047862  0.72991015     1.00470
C2052       C  0.53624099  0.69973018  0.73783511     1.13400
C2053       C  0.47103840  0.58474787  0.77367630     1.04180
O2054       O  0.43144632  0.58552336  0.84469539    -0.95430
O2055       O  0.43284899  0.62627230  0.87977855    -0.91180
O2056       O  0.45768454  0.65131801  0.90765737    -0.84320
C2057       C  0.43607799  0.64039780  0.90273117     1.10820
O2058       O  0.56471062  0.61930474  0.81967014    -0.97410
Zr2059     Zr  0.53535323  0.64955611  0.84359927     1.88940
O2060       O  0.51521235  0.69240477  0.90539793    -0.74060
O2061       O  0.48908522  0.58728199  0.86911135    -0.53320
O2062       O  0.54385198  0.61274737  0.87696089    -0.98000
O2063       O  0.57767852  0.66848805  0.83372146    -0.55220
O2064       O  0.54939784  0.66937235  0.88913897    -0.74570
C2065       C  0.53901495  0.68544238  0.90699209     0.97770
O2066       O  0.45939941  0.70327215  0.91762961    -0.63390
O2067       O  0.48894544  0.74527658  0.76873818    -0.58200
O2068       O  0.45961220  0.72564059  0.87334309    -0.94880
O2069       O  0.48093342  0.74307791  0.83425663    -0.93310
O2070       O  0.42583596  0.71553693  0.76439330    -0.93660
O2071       O  0.40410028  0.70901942  0.81498048    -0.92450
C2072       C  0.46551777  0.74476686  0.85652404     1.16610
H2073       H  0.47439811  0.69769440  0.75575925     0.32560
H2074       H  0.42895941  0.66316514  0.85360250     0.43410
H2075       H  0.52849781  0.70468813  0.85765474     0.36930
H2076       H  0.51304211  0.60823529  0.81049780     0.33410
H2077       H  0.38649588  0.65914697  0.78799320     0.25200
H2078       H  0.47686472  0.57273873  0.87304915     0.31140
H2079       H  0.56037887  0.61708908  0.88663443     0.37050
H2080       H  0.40977707  0.70986020  0.75458664     0.31510
H2081       H  0.49305751  0.73930290  0.74878016     0.30390
H2082       H  0.55556905  0.73273955  0.81418013     0.32070
H2083       H  0.58847031  0.66316476  0.85073125     0.31030
H2084       H  0.40946491  0.71295542  0.83528084     0.35030
H2085       H  0.44080030  0.69889257  0.91742924     0.27770
H2086       H  0.52016632  0.61675914  0.72161342     0.32000
H2087       H  0.57860790  0.61556804  0.83405040     0.34850
H2088       H  0.46993682  0.74403382  0.77013000     0.27460
H2089       H  0.46658378  0.69322338  0.93448309     0.40330
H2090       H  0.41659384  0.59260366  0.83342003     0.30390
H2091       H  0.40085092  0.63805350  0.80730544     0.38000
H2092       H  0.57520831  0.68760165  0.83592821     0.29850
H2093       H  0.50189089  0.57987304  0.85548336     0.29920
H2094       H  0.53396924  0.60769537  0.75075815     0.30180
Zr2095     Zr  0.52913548  0.92307087  0.75965732     2.17510
O2096       O  0.50272745  0.95067886  0.72739383    -0.52170
O2097       O  0.56248120  0.91717236  0.72243481    -0.75380
O2098       O  0.54231979  0.96883832  0.76049475    -0.82160
O2099       O  0.49008872  0.85790678  0.74434100    -0.83910
O2100       O  0.56298145  0.97879545  0.80314852    -0.79530
O2101       O  0.49735848  0.89925338  0.72654539    -0.91170
O2102       O  0.59451886  0.91595531  0.75433578    -0.77130
O2103       O  0.56956705  0.92370641  0.78603265    -0.86620
O2104       O  0.54495049  0.87944215  0.76117764    -0.86310
O2105       O  0.52288115  0.94021512  0.80876307    -0.73070
O2106       O  0.49783330  0.90009515  0.78798118    -0.85200
Zr2107     Zr  0.54611151  0.87224702  0.86301674     2.26420
Zr2108     Zr  0.56371429  0.93949805  0.83485757     2.06270
Zr2109     Zr  0.51366409  0.85619737  0.78914654     2.10050
Zr2110     Zr  0.58507008  0.87999061  0.78705224     1.78760
O2111       O  0.46782169  0.85025639  0.80004656    -0.94010
O2112       O  0.63072124  0.88986048  0.79478609    -0.41810
O2113       O  0.55392527  0.85575826  0.81466835    -0.78450
O2114       O  0.57870468  0.89493627  0.83544886    -0.97130
O2115       O  0.53162774  0.91663155  0.86296350    -0.90440
O2116       O  0.50627456  0.87237227  0.83659830    -0.93280
C2117       C  0.58656550  0.91484301  0.72813990     1.00470
C2118       C  0.48660370  0.87607095  0.72522520     1.13400
C2119       C  0.55415399  0.98477261  0.77745036     1.04180
O2120       O  0.60449298  0.96308994  0.83367975    -0.95430
O2121       O  0.59267929  0.92652855  0.87659569    -0.91180
O2122       O  0.57262497  0.89262581  0.90015795    -0.84320
C2123       C  0.59136658  0.90886572  0.89733771     1.10820
O2124       O  0.46501862  0.95216354  0.81776716    -0.97410
Zr2125     Zr  0.49163134  0.91629508  0.83685047     1.88940
O2126       O  0.51066946  0.86918536  0.89856726    -0.74060
O2127       O  0.54623663  0.97042582  0.86967457    -0.53320
O2128       O  0.49062059  0.94896766  0.87513712    -0.98000
O2129       O  0.44629173  0.90569610  0.82895087    -0.55220
O2130       O  0.47598856  0.88996504  0.87815343    -0.74570
C2131       C  0.48636808  0.87444414  0.89722004     0.97770
O2132       O  0.57689251  0.84106660  0.88395250    -0.63390
O2133       O  0.52518045  0.82038791  0.75655685    -0.58200
O2134       O  0.53099742  0.82824414  0.86844646    -0.94880
O2135       O  0.52798037  0.82099198  0.82108571    -0.93310
O2136       O  0.58858553  0.84966330  0.74634942    -0.93660
O2137       O  0.61369283  0.84466275  0.80316870    -0.92450
C2138       C  0.51968424  0.81746656  0.84703718     1.16610
H2139       H  0.54631171  0.87248251  0.74168954     0.32560
H2140       H  0.59528938  0.89221731  0.84453241     0.43410
H2141       H  0.49371548  0.86059083  0.84501189     0.36930
H2142       H  0.51663546  0.95802348  0.80735006     0.33410
H2143       H  0.63300084  0.90833229  0.78830849     0.25200
H2144       H  0.56144078  0.98033240  0.87655970     0.31140
H2145       H  0.47563919  0.94399967  0.88746309     0.37050
H2146       H  0.60592498  0.84165447  0.74795389     0.31510
H2147       H  0.52939640  0.82862741  0.73735825     0.30390
H2148       H  0.45862785  0.86336265  0.78766228     0.32070
H2149       H  0.43708555  0.91345053  0.84571812     0.31030
H2150       H  0.60895534  0.84130656  0.82391386     0.35030
H2151       H  0.59410381  0.84866729  0.87982936     0.27770
H2152       H  0.51499336  0.95960126  0.71392546     0.32000
H2153       H  0.45562031  0.95907388  0.83485786     0.34850
H2154       H  0.54200084  0.81394491  0.76404088     0.27460
H2155       H  0.57473981  0.84247586  0.90538854     0.40330
H2156       H  0.61557526  0.95265437  0.82061666     0.30390
H2157       H  0.63318962  0.89033552  0.81629414     0.38000
H2158       H  0.44495783  0.88655436  0.83252379     0.29850
H2159       H  0.53643968  0.98321288  0.85746646     0.29920
H2160       H  0.49586183  0.96470690  0.73993714     0.30180
Zr2161     Zr  0.64461207  0.27760336  0.89607437     2.17510
O2162       O  0.66541111  0.31074772  0.86502969    -0.52170
O2163       O  0.63565582  0.25087185  0.85341952    -0.75380
O2164       O  0.69063136  0.26941238  0.88984511    -0.82160
O2165       O  0.57774958  0.31169164  0.89332477    -0.83910
O2166       O  0.70549080  0.24324736  0.92733185    -0.79530
O2167       O  0.61738755  0.31276064  0.87236713    -0.91170
O2168       O  0.64145091  0.21218549  0.87528821    -0.77130
O2169       O  0.65494452  0.23495844  0.91676297    -0.86620
O2170       O  0.60492925  0.25375057  0.89873700    -0.86310
O2171       O  0.66470680  0.28265378  0.94382254    -0.73070
O2172       O  0.61827043  0.30208518  0.92861064    -0.85200
Zr2173     Zr  0.60757569  0.24488573  0.99892141     2.26420
Zr2174     Zr  0.67265623  0.23945367  0.96531740     2.06270
Zr2175     Zr  0.57873447  0.27771980  0.93122391     2.10050
Zr2176     Zr  0.61551544  0.21174111  0.91893060     1.78760
O2177       O  0.54721662  0.30942181  0.94818551    -0.94010
O2178       O  0.63889389  0.17042773  0.92278360    -0.41810
O2179       O  0.58962557  0.23631085  0.95149632    -0.78450
O2180       O  0.63207770  0.21709314  0.96718151    -0.97130
O2181       O  0.64802963  0.26638463  0.99731375    -0.90440
O2182       O  0.59727858  0.28639142  0.97714824    -0.93280
C2183       C  0.63454487  0.22583423  0.85308020     1.00470
C2184       C  0.59386671  0.32132950  0.87475704     1.13400
C2185       C  0.70832667  0.25597954  0.90297490     1.04180
O2186       O  0.70519811  0.20505650  0.96586110    -0.95430
O2187       O  0.66617038  0.20555200  0.00523983    -0.91180
O2188       O  0.63781270  0.22636494  0.53284417    -0.84320
C2189       C  0.65112497  0.20596731  0.52757670     1.10820
O2190       O  0.66715832  0.34175819  0.95643406    -0.97410
Zr2191     Zr  0.63803304  0.30805189  0.97556290     1.88940
O2192       O  0.59426175  0.27722803  0.53348963    -0.74060
O2193       O  0.70257436  0.26270023  0.99674531    -0.53320
O2194       O  0.67170904  0.31450696  0.01203501    -0.98000
O2195       O  0.61818611  0.35103613  0.96871027    -0.55220
O2196       O  0.61467788  0.31642661  0.02055873    -0.74570
C2197       C  0.59860674  0.30196187  0.53624920     0.97770
O2198       O  0.58806864  0.20679563  0.02249116    -0.63390
O2199       O  0.54722469  0.26422018  0.89476787    -0.58200
O2200       O  0.56380286  0.23430655  0.00444544    -0.94880
O2201       O  0.54891127  0.25142654  0.96141653    -0.93310
O2202       O  0.58107208  0.20225807  0.88429614    -0.93660
O2203       O  0.58882462  0.17436950  0.93312578    -0.92450
C2204       C  0.54616334  0.23803571  0.98561675     1.16610
H2205       H  0.59604615  0.25252377  0.88027404     0.32560
H2206       H  0.63233180  0.19937219  0.97488812     0.43410
H2207       H  0.58382552  0.29616601  0.98654307     0.36930
H2208       H  0.68096685  0.29167355  0.94147164     0.33410
H2209       H  0.63698326  0.16248428  0.90324014     0.25200
H2210       H  0.70903068  0.24910452  0.01066058     0.31140
H2211       H  0.66576183  0.32955885  0.02366727     0.37050
H2212       H  0.58716372  0.18672623  0.87356881     0.31510
H2213       H  0.55355375  0.27086258  0.87558060     0.30390
H2214       H  0.53078355  0.30394550  0.93905706     0.32070
H2215       H  0.62084482  0.36006534  0.98752103     0.31030
H2216       H  0.58348888  0.17802845  0.95348362     0.35030
H2217       H  0.59850476  0.20337781  0.04017473     0.27770
H2218       H  0.67497414  0.30104842  0.84988598     0.32000
H2219       H  0.67020849  0.35383791  0.97284544     0.34850
H2220       H  0.54916822  0.24494794  0.89381085     0.27460
H2221       H  0.59194779  0.19202972  0.00938654     0.40330
H2222       H  0.69787145  0.19116764  0.95343464     0.30390
H2223       H  0.65726550  0.17561907  0.92379584     0.38000
H2224       H  0.59943128  0.34742569  0.96803410     0.29850
H2225       H  0.71750182  0.26677376  0.98394835     0.29920
H2226       H  0.67881149  0.31876184  0.87748683     0.30180
Zr2227     Zr  0.36977052  0.29822472  0.87883136     2.17510
O2228       O  0.34372076  0.26789439  0.85052549    -0.52170
O2229       O  0.37645917  0.33074748  0.83963352    -0.75380
O2230       O  0.32417487  0.30989594  0.87946158    -0.82160
O2231       O  0.43564942  0.26659040  0.86058316    -0.83910
O2232       O  0.31319465  0.32959258  0.92244833    -0.79530
O2233       O  0.39498071  0.27045076  0.84256335    -0.91170
O2234       O  0.37490613  0.36217218  0.87166051    -0.77130
O2235       O  0.36676359  0.33924421  0.90518305    -0.86620
O2236       O  0.41176642  0.31651771  0.88153679    -0.86310
O2237       O  0.35309629  0.29033263  0.92829140    -0.73070
O2238       O  0.39382096  0.26682120  0.90689210    -0.85200
Zr2239     Zr  0.41899021  0.31617906  0.98004299     2.26420
Zr2240     Zr  0.35117124  0.33147318  0.95436369     2.06270
Zr2241     Zr  0.43619261  0.28508629  0.90792636     2.10050
Zr2242     Zr  0.40907491  0.35724164  0.90695386     1.78760
O2243       O  0.44034588  0.23789570  0.91656298    -0.94010
O2244       O  0.41424635  0.40210054  0.88816707    -0.41810
O2245       O  0.43550949  0.32622182  0.93241335    -0.78450
O2246       O  0.39377635  0.34909535  0.95538744    -0.97130
O2247       O  0.37603969  0.29960697  0.98125208    -0.90440
O2248       O  0.42053197  0.27557807  0.95529804    -0.93280
C2249       C  0.37957065  0.35481427  0.84587391     1.00470
C2250       C  0.41891979  0.26257810  0.84074154     1.13400
C2251       C  0.30790459  0.32053071  0.89692025     1.04180
O2252       O  0.33181800  0.37491263  0.95135878    -0.95430
O2253       O  0.35880220  0.35489971  0.00199107    -0.91180
O2254       O  0.39486789  0.34036728  0.52037847    -0.84320
C2255       C  0.37633714  0.35686337  0.52008391     1.10820
O2256       O  0.34506520  0.23002413  0.93640813    -0.97410
Zr2257     Zr  0.37791780  0.25913958  0.95606644     1.88940
O2258       O  0.42125380  0.28184746  0.51770283    -0.74060
O2259       O  0.31754850  0.31325721  0.98583848    -0.53320
O2260       O  0.34406111  0.25643203  0.99293732    -0.98000
O2261       O  0.39142284  0.21374760  0.94994553    -0.55220
O2262       O  0.40269343  0.24517738  0.99932771    -0.74570
C2263       C  0.41560306  0.25725733  0.51866476     0.97770
O2264       O  0.44657041  0.35003008  0.00072711    -0.63390
O2265       O  0.47506683  0.29557341  0.87952227    -0.58200
O2266       O  0.46302144  0.30342920  0.98438136    -0.94880
O2267       O  0.47266702  0.29593017  0.93790738    -0.93310
O2268       O  0.45159508  0.35626820  0.88465690    -0.93660
O2269       O  0.41661379  0.39590596  0.93657046    -0.92450
C2270       C  0.47426482  0.28992088  0.96498802     1.16610
H2271       H  0.41924125  0.31753701  0.86237801     0.32560
H2272       H  0.39390794  0.36509222  0.96631740     0.43410
H2273       H  0.43228895  0.26305035  0.96396444     0.36930
H2274       H  0.33592744  0.28311947  0.92694220     0.33410
H2275       H  0.42775174  0.40151904  0.87293430     0.25200
H2276       H  0.30433342  0.32723593  0.98664469     0.31140
H2277       H  0.34885224  0.24116260  0.00548377     0.37050
H2278       H  0.46230745  0.36770355  0.89708199     0.31510
H2279       H  0.47979306  0.28013029  0.86784104     0.30390
H2280       H  0.43049571  0.22950658  0.90065581     0.32070
H2281       H  0.38379205  0.20405430  0.96680968     0.31030
H2282       H  0.43353124  0.39262364  0.94605296     0.35350
H2283       H  0.45997378  0.35346032  0.98570460     0.27770
H2284       H  0.33418036  0.27893800  0.83611604     0.32000
H2285       H  0.33828924  0.21989972  0.95342809     0.34850
H2286       H  0.46945689  0.30886581  0.86478960     0.27460
H2287       H  0.43611552  0.36627745  0.00038994     0.40330
H2288       H  0.33953638  0.38310919  0.93360377     0.30390
H2289       H  0.39814941  0.40656009  0.87753311     0.38000
H2290       H  0.41016502  0.21364301  0.95406183     0.29850
H2291       H  0.30945163  0.29931664  0.97410932     0.29920
H2292       H  0.33043004  0.26114887  0.86427606     0.30180
Zr2293     Zr  0.52213644  0.15385866  0.73220962     2.17510
O2294       O  0.49038454  0.13134423  0.76292811    -0.52170
O2295       O  0.55157793  0.16564746  0.77145863    -0.75380
O2296       O  0.53480829  0.10826836  0.74290511    -0.82160
O2297       O  0.48987693  0.22212153  0.73377653    -0.83910
O2298       O  0.55693058  0.09346687  0.70351163    -0.79530
O2299       O  0.49065789  0.18297688  0.75853412    -0.91170
O2300       O  0.58866721  0.16008025  0.74761243    -0.77130
O2301       O  0.56269290  0.14374867  0.70901182    -0.86620
O2302       O  0.54399431  0.19473472  0.72466826    -0.86310
O2303       O  0.51446423  0.13133544  0.68648584    -0.73070
O2304       O  0.49527691  0.17875539  0.69950414    -0.85200
Zr2305     Zr  0.54510532  0.18767678  0.62311860     2.26420
Zr2306     Zr  0.55542879  0.12396721  0.66218419     2.06270
Zr2307     Zr  0.51803031  0.21924723  0.69146275     2.10050
Zr2308     Zr  0.58395782  0.18428668  0.70213202     1.78760
O2309       O  0.48404238  0.24890882  0.67469342    -0.94010
O2310       O  0.62462712  0.16116356  0.69596660    -0.41810
O2311       O  0.55688623  0.20746895  0.66867899    -0.78450
O2312       O  0.57540803  0.16602619  0.65551719    -0.97130
O2313       O  0.52553365  0.14613712  0.63022183    -0.90440
O2314       O  0.50592241  0.19822705  0.64774671    -0.93280
C2315       C  0.57623382  0.16656807  0.77035342     1.00470
C2316       C  0.48279682  0.20710434  0.75518679     1.13400
C2317       C  0.54784201  0.09056569  0.72956431     1.04180
O2318       O  0.58638641  0.08824490  0.65891179    -0.95430
O2319       O  0.58932838  0.12974926  0.62370028    -0.91180
O2320       O  0.56704727  0.15549045  0.59278354    -0.84320
C2321       C  0.58793654  0.14372110  0.59987990     1.10820
O2322       O  0.45613723  0.12587397  0.67891147    -0.97410
Zr2323     Zr  0.48613388  0.15619296  0.65497908     1.88940
O2324       O  0.50706213  0.19740018  0.59172504    -0.74060
O2325       O  0.53027194  0.09330897  0.63353663    -0.53320
O2326       O  0.47820817  0.12042806  0.62138009    -0.98000
O2327       O  0.44401702  0.17513239  0.66524559    -0.55220
O2328       O  0.47149407  0.17692028  0.60982095    -0.74570
C2329       C  0.48268311  0.19223033  0.59135146     0.97770
O2330       O  0.56809021  0.20701954  0.58195000    -0.63390
O2331       O  0.53465049  0.25320829  0.72324989    -0.58200
O2332       O  0.56161556  0.23104344  0.61945372    -0.94880
O2333       O  0.54340201  0.24889617  0.65960902    -0.93310
O2334       O  0.59372122  0.22223927  0.73188614    -0.93660
O2335       O  0.61928808  0.21156937  0.68416616    -0.92450
C2336       C  0.55746506  0.25018987  0.63615738     1.16610
H2337       H  0.54606150  0.20474567  0.74227349     0.32560
H2338       H  0.59245626  0.16728867  0.64735085     0.43410
H2339       H  0.49499810  0.21120206  0.63847187     0.36930
H2340       H  0.50655626  0.11455657  0.69077485     0.33410
H2341       H  0.63359938  0.16283707  0.71502110     0.25200
H2342       H  0.54153090  0.08906165  0.61675976     0.31140
H2343       H  0.46174353  0.12493955  0.61149834     0.37050
H2344       H  0.60955749  0.21729782  0.74280681     0.31510
H2345       H  0.52369957  0.26864745  0.71896785     0.30390
H2346       H  0.48158071  0.26125125  0.69096813     0.32070
H2347       H  0.43308962  0.17060048  0.64824655     0.31030
H2348       H  0.61411918  0.21664435  0.66394591     0.35030
H2349       H  0.58645811  0.20263841  0.58546199     0.27770
H2350       H  0.50001808  0.12503666  0.78042354     0.32000
H2351       H  0.44290926  0.12183499  0.66397741     0.34850
H2352       H  0.55178568  0.25793869  0.71522260     0.27460
H2353       H  0.56280129  0.19601211  0.56539184     0.40330
H2354       H  0.60175289  0.09444695  0.66969585     0.30390
H2355       H  0.61970668  0.14243170  0.69513919     0.38000
H2356       H  0.44668517  0.19430629  0.66326232     0.29850
H2357       H  0.52992318  0.07704267  0.64568952     0.29920
H2358       H  0.48569664  0.11529467  0.75222797     0.30180
Zr2359     Zr  0.50083507  0.42407830  0.74238111     2.17510
O2360       O  0.53239262  0.45523177  0.76068223    -0.52170
O2361       O  0.47145621  0.42357783  0.78372694    -0.75380
O2362       O  0.48356506  0.46789869  0.73924389    -0.82160
O2363       O  0.53934235  0.36263229  0.76588319    -0.83910
O2364       O  0.45960721  0.47502240  0.69781182    -0.79530
O2365       O  0.53083850  0.40409359  0.78042785    -0.91170
O2366       O  0.43925525  0.41823777  0.75316401    -0.77130
O2367       O  0.45845357  0.42178115  0.72028713    -0.86620
O2368       O  0.48625485  0.37991082  0.74823580    -0.86310
O2369       O  0.50271409  0.43794388  0.69105252    -0.73070
O2370       O  0.53100389  0.39955193  0.71452120    -0.85200
Zr2371     Zr  0.47758849  0.36491479  0.64973571     2.26420
Zr2372     Zr  0.46010484  0.43445750  0.66954020     2.06270
Zr2373     Zr  0.51635151  0.35543295  0.72124688     2.10050
Zr2374     Zr  0.44438932  0.37787657  0.72682139     1.78760
O2375       O  0.56238022  0.34855897  0.71478122    -0.94010
O2376       O  0.39970873  0.37655949  0.74324730    -0.41810
O2377       O  0.47393606  0.35132224  0.70047602    -0.78450
O2378       O  0.44646522  0.38998606  0.67632942    -0.97130
O2379       O  0.49044671  0.40941469  0.64206897    -0.90440
O2380       O  0.51967230  0.36827813  0.67092516    -0.93280
C2381       C  0.44762835  0.41895818  0.77929825     1.00470
C2382       C  0.54217280  0.38142759  0.78366458     1.13400
C2383       C  0.46950366  0.48231858  0.72231916     1.04180
O2384       O  0.41712005  0.45332326  0.67267824    -0.95430
O2385       O  0.43111157  0.42036177  0.62877932    -0.91180
O2386       O  0.44420178  0.37949947  0.61601123    -0.84320
C2387       C  0.42908148  0.39930341  0.61338842     1.10820
O2388       O  0.56014295  0.44921232  0.67573815    -0.97410
Zr2389     Zr  0.53236112  0.41241582  0.66334195     1.88940
O2390       O  0.50997481  0.35897331  0.61145847    -0.74060
O2391       O  0.47380273  0.46585305  0.63193554    -0.53320
O2392       O  0.52962486  0.44377267  0.62259386    -0.98000
O2393       O  0.57813164  0.40167548  0.66635833    -0.55220
O2394       O  0.54392637  0.38542252  0.62180829    -0.74570
C2395       C  0.53319318  0.36708217  0.60715980     0.97770
O2396       O  0.44642678  0.33695585  0.62506566    -0.63390
O2397       O  0.50982290  0.31860799  0.75510765    -0.58200
O2398       O  0.48656958  0.31958812  0.66125712    -0.94880
O2399       O  0.51265512  0.31360843  0.69887072    -0.93310
O2400       O  0.44797265  0.34463364  0.76563500    -0.93660
O2401       O  0.40993353  0.35390854  0.70272302    -0.92450
C2402       C  0.50830914  0.31243562  0.67153557     1.16610
H2403       H  0.48655839  0.37420614  0.76838967     0.32560
H2404       H  0.42930802  0.38752052  0.66873786     0.43410
H2405       H  0.53230137  0.35685143  0.66249712     0.36930
H2406       H  0.50833462  0.45598448  0.68983315     0.33410
H2407       H  0.40039159  0.36935560  0.76349180     0.25200
H2408       H  0.45958519  0.47878631  0.63077880     0.31140
H2409       H  0.54393372  0.43895322  0.60938831     0.37050
H2410       H  0.43577970  0.33069035  0.75989193     0.31510
H2411       H  0.52740000  0.31256133  0.76040472     0.30390
H2412       H  0.56993893  0.36635569  0.71391657     0.32070
H2413       H  0.58557030  0.40820157  0.64763009     0.31030
H2414       H  0.41762752  0.33663999  0.69837045     0.35030
H2415       H  0.45522584  0.33030692  0.60750040     0.27770
H2416       H  0.52324565  0.46512002  0.77600174     0.32000
H2417       H  0.56880600  0.45454982  0.65725431     0.34850
H2418       H  0.50293031  0.32632646  0.77326128     0.27460
H2419       H  0.44348039  0.32141975  0.63792561     0.40330
H2420       H  0.40784233  0.44156300  0.68656611     0.30390
H2421       H  0.39439466  0.39507666  0.74524889     0.38000
H2422       H  0.57891552  0.38234911  0.66490861     0.29850
H2423       H  0.48825870  0.47549113  0.64097119     0.29920
H2424       H  0.53497283  0.46805170  0.74440312     0.30180
Zr2425     Zr  0.13879484  0.29980676  0.86067090     2.17510
O2426       O  0.15593810  0.27765048  0.90434156    -0.52170
O2427       O  0.13103203  0.33763718  0.89232029    -0.75380
O2428       O  0.18548868  0.30563208  0.86668337    -0.82160
O2429       O  0.07453988  0.25886258  0.86203225    -0.83910
O2430       O  0.20131805  0.32782593  0.82677501    -0.79530
O2431       O  0.11059805  0.26732428  0.88847574    -0.91170
O2432       O  0.13351274  0.37229071  0.86154714    -0.77130
O2433       O  0.14814367  0.33876230  0.83226922    -0.86620
O2434       O  0.09843129  0.32035176  0.85044145    -0.86310
O2435       O  0.16189241  0.28731222  0.81677176    -0.73070
O2436       O  0.11571150  0.26874696  0.83193952    -0.85200
Zr2437     Zr  0.10748855  0.31192007  0.75011098     2.26420
Zr2438     Zr  0.16945642  0.32681150  0.78762595     2.06270
Zr2439     Zr  0.07530684  0.28979578  0.82124195     2.10050
Zr2440     Zr  0.10763440  0.35839449  0.82158617     1.78760
O2441       O  0.04315045  0.25665813  0.80994862    -0.94010
O2442       O  0.12785534  0.39877450  0.80344346    -0.41810
O2443       O  0.08502528  0.32758755  0.79263539    -0.78450
O2444       O  0.12756439  0.34502921  0.77823639    -0.97130
O2445       O  0.14859543  0.29342837  0.75961207    -0.90440
O2446       O  0.09723547  0.27437689  0.77958529    -0.93280
C2447       C  0.13118726  0.36255595  0.88712248     1.00470
C2448       C  0.08862902  0.25529230  0.88489437     1.13400
C2449       C  0.20367981  0.31738851  0.85245513     1.04180
O2450       O  0.20193348  0.36118788  0.78420502    -0.95430
O2451       O  0.16385014  0.35819451  0.74568380    -0.91180
O2452       O  0.13954421  0.33265084  0.71757412    -0.84320
C2453       C  0.15004466  0.35489904  0.72248117     1.10820
O2454       O  0.16901805  0.22755123  0.81581300    -0.97410
Zr2455     Zr  0.13855859  0.25546785  0.78903178     1.88940
O2456       O  0.10222454  0.27204117  0.72138742    -0.74060
O2457       O  0.19992441  0.30138274  0.75924816    -0.53320
O2458       O  0.17350288  0.24568988  0.75529262    -0.98000
O2459       O  0.12137601  0.21332779  0.80570742    -0.55220
O2460       O  0.11722618  0.23667446  0.74683300    -0.74570
C2461       C  0.10494144  0.24719283  0.72528630     0.97770
O2462       O  0.08789608  0.34110132  0.71460340    -0.63390
O2463       O  0.04534766  0.30519207  0.85853913    -0.58200
O2464       O  0.06325409  0.31684748  0.73830673    -0.94880
O2465       O  0.04582545  0.30790185  0.78302962    -0.93310
O2466       O  0.07120266  0.36906214  0.85298903    -0.93660
O2467       O  0.07948161  0.39142208  0.79930543    -0.92450
C2468       C  0.04429880  0.31585074  0.75578882     1.16610
H2469       H  0.08975110  0.32445747  0.86846717     0.32560
H2470       H  0.12583892  0.36132282  0.76764521     0.43410
H2471       H  0.08482124  0.26276906  0.77093046     0.36930
H2472       H  0.17820657  0.27936629  0.82183244     0.33410
H2473       H  0.12508594  0.41211367  0.81856515     0.25200
H2474       H  0.20854106  0.31448044  0.74633569     0.31140
H2475       H  0.16910825  0.22835993  0.74719894     0.37050
H2476       H  0.05568687  0.36717212  0.84053291     0.31510
H2477       H  0.05291867  0.30101909  0.87799466     0.30390
H2478       H  0.05312689  0.24026208  0.80773900     0.32070
H2479       H  0.12532348  0.20101579  0.78977361     0.31030
H2480       H  0.07604699  0.38491403  0.77934340     0.35030
H2481       H  0.09044775  0.35880302  0.72268492     0.27770
H2482       H  0.16484005  0.29135632  0.91567657     0.32000
H2483       H  0.17392018  0.21357575  0.80208851     0.34850
H2484       H  0.04545014  0.32453623  0.85705044     0.27460
H2485       H  0.09909432  0.34043708  0.69716046     0.40330
H2486       H  0.19439801  0.37606221  0.79492997     0.30390
H2487       H  0.14659900  0.39512995  0.80426415     0.38000
H2488       H  0.10241846  0.21556824  0.80485037     0.29850
H2489       H  0.21335264  0.29600876  0.77358709     0.29920
H2490       H  0.16980765  0.26597946  0.89734263     0.30180
Zr2491     Zr  0.87312829  0.27019867  0.87405456     2.17510
O2492       O  0.84930162  0.29343846  0.91168279    -0.52170
O2493       O  0.87545489  0.23255965  0.90790607    -0.75380
O2494       O  0.82680596  0.26330218  0.87110506    -0.82160
O2495       O  0.93979160  0.29989827  0.89563819    -0.83910
O2496       O  0.81593474  0.24324739  0.82844145    -0.79530
O2497       O  0.89726749  0.30179304  0.90696223    -0.91170
O2498       O  0.87417892  0.20132341  0.87464725    -0.77130
O2499       O  0.86919043  0.23103893  0.84564115    -0.86620
O2500       O  0.91463254  0.25017875  0.87288707    -0.86310
O2501       O  0.85702356  0.28137771  0.82510989    -0.73070
O2502       O  0.89831423  0.30194686  0.84832841    -0.85200
Zr2503     Zr  0.92249328  0.25473893  0.77164989     2.26420
Zr2504     Zr  0.85420550  0.24144492  0.79722116     2.06270
Zr2505     Zr  0.93983344  0.28214587  0.84779419     2.10050
Zr2506     Zr  0.91061885  0.21146605  0.84436855     1.78760
O2507       O  0.94085040  0.32962350  0.84086405    -0.94010
O2508       O  0.89775897  0.16775536  0.82884059    -0.41810
O2509       O  0.93745453  0.24269034  0.82011530    -0.78450
O2510       O  0.89647408  0.22223064  0.79626248    -0.97130
O2511       O  0.88019749  0.27313243  0.77144307    -0.90440
O2512       O  0.92593880  0.29407715  0.79923878    -0.93280
C2513       C  0.87466714  0.20824997  0.90117848     1.00470
C2514       C  0.92133846  0.30824472  0.91128463     1.13400
C2515       C  0.81051170  0.25270622  0.85368393     1.04180
O2516       O  0.82910013  0.20116043  0.79653421    -0.95430
O2517       O  0.86175813  0.21395665  0.75364761    -0.91180
O2518       O  0.90182401  0.22531808  0.73773395    -0.84320
C2519       C  0.88107986  0.21185262  0.73597664     1.10820
O2520       O  0.85275919  0.34232203  0.82063593    -0.97410
Zr2521     Zr  0.88372106  0.31220306  0.79916506     1.88940
O2522       O  0.92820067  0.29152793  0.73770293    -0.74060
O2523       O  0.82456031  0.26362297  0.76364087    -0.53320
O2524       O  0.84936579  0.31750009  0.76307598    -0.98000
O2525       O  0.89895123  0.35696237  0.80618258    -0.55220
O2526       O  0.90778099  0.32698324  0.75619296    -0.74570
C2527       C  0.92237813  0.31596742  0.73735075     0.97770
O2528       O  0.95069165  0.23554636  0.73480850    -0.63390
O2529       O  0.97645545  0.27572562  0.88092853    -0.58200
O2530       O  0.96699299  0.25149293  0.78602847    -0.94880
O2531       O  0.97965927  0.27497737  0.82296218    -0.93310
O2532       O  0.93765619  0.20023399  0.88660037    -0.93660
O2533       O  0.94495364  0.18273346  0.82762962    -0.92450
C2534       C  0.97851680  0.27164742  0.79564858     1.16610
H2535       H  0.92135064  0.24683545  0.89235659     0.32560
H2536       H  0.89712934  0.20546563  0.78689150     0.43410
H2537       H  0.93822989  0.30631536  0.79106483     0.36930
H2538       H  0.84019746  0.28938087  0.82634194     0.33410
H2539       H  0.90460353  0.15530306  0.84378312     0.25200
H2540       H  0.81333637  0.24946217  0.75629435     0.31140
H2541       H  0.85463849  0.33282056  0.75088482     0.37050
H2542       H  0.94307290  0.18183242  0.88386462     0.31510
H2543       H  0.98969346  0.28877377  0.87507925     0.30390
H2544       H  0.93086196  0.33733905  0.85701273     0.32070
H2545       H  0.89064497  0.36747000  0.79034077     0.31030
H2546       H  0.94728999  0.18756799  0.80668321     0.35030
H2547       H  0.94899878  0.21625444  0.73682085     0.27770
H2548       H  0.83916221  0.27988137  0.92235248     0.32000
H2549       H  0.84522544  0.35242253  0.80399624     0.34850
H2550       H  0.98391513  0.25845279  0.87610924     0.27460
H2551       H  0.94330539  0.24019444  0.71536506     0.40330
H2552       H  0.83641532  0.19026342  0.81267522     0.30390
H2553       H  0.87881806  0.16713402  0.83141986     0.38000
H2554       H  0.91742064  0.35680288  0.80074353     0.29850
H2555       H  0.81320041  0.27402719  0.77642615     0.29920
H2556       H  0.83640906  0.30433351  0.90105244     0.30180
Zr2557     Zr  0.99018108  0.14896115  0.51246721     2.17510
O2558       O  0.01382084  0.12325372  0.47679141    -0.52170
O2559       O  0.95328848  0.15459276  0.97937921    -0.75380
O2560       O  0.97694451  0.10342968  0.51314217    -0.82160
O2561       O  0.03030461  0.21308725  0.49677319    -0.83910
O2562       O  0.95672875  0.09170192  0.55580946    -0.79530
O2563       O  0.02048444  0.17313923  0.97707926    -0.91170
O2564       O  0.92305469  0.15739479  0.51415950    -0.77130
O2565       O  0.95095836  0.14896666  0.54041953    -0.86620
O2566       O  0.97673161  0.19309937  0.51590837    -0.86310
O2567       O  0.99740148  0.12858198  0.56073221    -0.73070
O2568       O  0.02363002  0.16813163  0.54061631    -0.85200
Zr2569     Zr  0.97896865  0.19501730  0.61740911     2.26420
Zr2570     Zr  0.95732176  0.12978313  0.58799456     2.06270
Zr2571     Zr  0.01013797  0.21269702  0.54337086     2.10050
Zr2572     Zr  0.93759533  0.19319420  0.54324359     1.78760
O2573       O  0.05673740  0.21391437  0.55161503    -0.94010
O2574       O  0.89314766  0.18748501  0.55977445    -0.41810
O2575       O  0.97068711  0.21476552  0.57004001    -0.78450
O2576       O  0.94463635  0.17507936  0.59062829    -0.97130
O2577       O  0.99086190  0.14979866  0.61588752    -0.90440
O2578       O  0.01810477  0.19337636  0.59002807    -0.93280
C2579       C  0.92953418  0.15594496  0.98716302     1.00470
C2580       C  0.03217965  0.19590799  0.97617163     1.13400
C2581       C  0.96542868  0.08675279  0.53001355     1.04180
O2582       O  0.91474751  0.10996082  0.58468768    -0.95430
O2583       O  0.93036210  0.14106010  0.63092378    -0.91180
O2584       O  0.95078554  0.17475159  0.65362470    -0.84320
C2585       C  0.93229185  0.15814600  0.65145977     1.10820
O2586       O  0.05557271  0.11375848  0.56781871    -0.97410
Zr2587     Zr  0.03028082  0.14901263  0.58901686     1.88940
O2588       O  0.01332595  0.19263975  0.65366895    -0.74060
O2589       O  0.97189472  0.09593115  0.62239531    -0.53320
O2590       O  0.03029834  0.11284461  0.62455428    -0.98000
O2591       O  0.07577544  0.15936771  0.58175495    -0.55220
O2592       O  0.04657666  0.17081029  0.63284334    -0.74570
C2593       C  0.03711508  0.18562342  0.65273002     0.97770
O2594       O  0.95102637  0.22737666  0.64006989    -0.63390
O2595       O  0.99960682  0.25127235  0.51294759    -0.58200
O2596       O  0.00283455  0.23504638  0.62361984    -0.94880
O2597       O  0.00201160  0.24738607  0.57697746    -0.93310
O2598       O  0.92955755  0.21966942  0.49910248    -0.93660
O2599       O  0.91591200  0.23373719  0.55631641    -0.92450
C2600       C  0.01251577  0.24787927  0.60205990     1.16610
H2601       H  0.97493134  0.20111656  0.49669027     0.32560
H2602       H  0.92838566  0.17797654  0.60025320     0.43410
H2603       H  0.03206558  0.20303148  0.59863198     0.36930
H2604       H  0.00300311  0.11066569  0.55866616     0.33410
H2605       H  0.88228740  0.19668533  0.54500843     0.25200
H2606       H  0.95771799  0.08292741  0.62279767     0.31140
H2607       H  0.04548902  0.11608474  0.63715868     0.37050
H2608       H  0.91116649  0.22477215  0.50009508     0.31510
H2609       H  0.99172916  0.24458980  0.49476437     0.30390
H2610       H  0.06424244  0.20142326  0.53761466     0.32070
H2611       H  0.08487833  0.14995205  0.59786835     0.31030
H2612       H  0.91869036  0.23517402  0.57771133     0.35030
H2613       H  0.95273667  0.24336215  0.62760473     0.27770
H2614       H  0.00094919  0.11436168  0.96458577     0.32000
H2615       H  0.06564540  0.10595545  0.58422641     0.34850
H2616       H  0.98508735  0.25978519  0.52316420     0.27460
H2617       H  0.93325584  0.22121850  0.63618469     0.40330
H2618       H  0.90618827  0.11964565  0.56838995     0.30390
H2619       H  0.88934351  0.16865398  0.55711613     0.38000
H2620       H  0.07747491  0.17809261  0.58675633     0.29850
H2621       H  0.98613337  0.08703384  0.61213736     0.29920
H2622       H  0.02160841  0.10852008  0.48811073     0.30180
Zr2623     Zr  0.02851592  0.41755965  0.51656055     2.17510
O2624       O  0.00279848  0.43777763  0.47749311    -0.52170
O2625       O  0.06354818  0.40986628  0.98143038    -0.75380
O2626       O  0.03801940  0.46426501  0.51023217    -0.82160
O2627       O  0.99052238  0.35154838  0.51512065    -0.83910
O2628       O  0.06124164  0.47723845  0.54979590    -0.79530
O2629       O  0.99529291  0.38987183  0.98964796    -0.91170
O2630       O  0.09845093  0.41388005  0.51019557    -0.77130
O2631       O  0.06726061  0.42735603  0.54357401    -0.86620
O2632       O  0.05015975  0.37681193  0.52408611    -0.86310
O2633       O  0.01742476  0.43886598  0.56222690    -0.73070
O2634       O  0.99957519  0.39226049  0.54612585    -0.85200
Zr2635     Zr  0.04412767  0.38090534  0.62625043     2.26420
Zr2636     Zr  0.05673245  0.44591182  0.59019485     2.06270
Zr2637     Zr  0.02160150  0.35161614  0.55431123     2.10050
Zr2638     Zr  0.08807228  0.38670640  0.55149020     1.78760
O2639       O  0.99111631  0.31845243  0.57156812    -0.94010
O2640       O  0.12823919  0.40803617  0.56587596    -0.41810
O2641       O  0.05820527  0.36368234  0.58081506    -0.78450
O2642       O  0.07595923  0.40349807  0.59737532    -0.97130
O2643       O  0.02503931  0.42265105  0.61872456    -0.90440
O2644       O  0.00656983  0.37077986  0.59828534    -0.93280
C2645       C  0.08814721  0.41049130  0.98515649     1.00470
C2646       C  0.98462490  0.36685022  0.99345730     1.13400
C2647       C  0.05169882  0.48111156  0.52406089     1.04180
O2648       O  0.08573777  0.48260615  0.59852032    -0.95430
O2649       O  0.08937322  0.43845798  0.62996028    -0.91180
O2650       O  0.06472198  0.41283773  0.65811577    -0.84320
C2651       C  0.08653063  0.42343324  0.65279654     1.10820
O2652       O  0.95780920  0.44277987  0.56502230    -0.97410
Zr2653     Zr  0.98732116  0.41299273  0.59064766     1.88940
O2654       O  0.00606181  0.37162447  0.65611854    -0.74060
O2655       O  0.02911082  0.47505467  0.61781628    -0.53320
O2656       O  0.97620904  0.44859115  0.62325812    -0.98000
O2657       O  0.94655461  0.39286840  0.57677063    -0.55220
O2658       O  0.97134301  0.39132582  0.63488838    -0.74570
C2659       C  0.98191583  0.37699715  0.65488813     0.97770
O2660       O  0.05880917  0.36138381  0.67153760    -0.63390
O2661       O  0.03399820  0.32092302  0.51628656    -0.58200
O2662       O  0.06420304  0.33828470  0.62626207    -0.94880
O2663       O  0.04979719  0.32231971  0.58315785    -0.93310
O2664       O  0.09628442  0.34748289  0.52312756    -0.93660
O2665       O  0.12368766  0.36004184  0.57008251    -0.92450
C2666       C  0.06307066  0.32025071  0.60721208     1.16610
H2667       H  0.05376792  0.36811180  0.50592768     0.32560
H2668       H  0.09242852  0.40112709  0.60657470     0.43410
H2669       H  0.99528919  0.35782150  0.60700606     0.36930
H2670       H  0.00954812  0.45565047  0.55787028     0.33410
H2671       H  0.13671427  0.41379412  0.54745915     0.25200
H2672       H  0.03946528  0.47961366  0.63525782     0.31140
H2673       H  0.95963751  0.44326046  0.63231648     0.37050
H2674       H  0.09342473  0.33264619  0.53702547     0.31510
H2675       H  0.03072206  0.32965935  0.49710516     0.30390
H2676       H  0.97391506  0.32604324  0.56730635     0.32070
H2677       H  0.93478407  0.39601861  0.59341493     0.31030
H2678       H  0.11750209  0.35310965  0.58922690     0.35030
H2679       H  0.07652011  0.36842130  0.67225513     0.27770
H2680       H  0.01546429  0.44460313  0.96259464     0.32000
H2681       H  0.94318690  0.44546640  0.57857830     0.34850
H2682       H  0.05298661  0.31967961  0.51754114     0.27460
H2683       H  0.04946230  0.37066354  0.68718343     0.40330
H2684       H  0.10210538  0.47756926  0.58896996     0.30390
H2685       H  0.12278536  0.42459978  0.57502832     0.38000
H2686       H  0.94999103  0.37377403  0.57767870     0.29850
H2687       H  0.02851187  0.49142403  0.60584999     0.29920
H2688       H  0.99477625  0.45348915  0.48609339     0.30180
C2689       C  0.07654964  0.29522758  0.61313179    -0.06970
C2690       C  0.07763022  0.27987537  0.58826182    -0.18090
C2691       C  0.05478655  0.26660626  0.58202773     0.10230
C2692       C  0.03784028  0.26019878  0.60579007    -0.06890
C2693       C  0.04638065  0.26530650  0.63446294    -0.18130
C2694       C  0.06702555  0.28246356  0.63811456     0.10260
S2695       S  0.04579393  0.26721724  0.54410716    -0.33090
S2696       S  0.07426294  0.29445966  0.67346071    -0.33100
H2697       H  0.09778142  0.30574014  0.66441034     0.28270
H2698       H  0.02383640  0.28249752  0.54950359     0.28270
H2699       H  0.08925051  0.28690778  0.57001734     0.18860
H2700       H  0.03581778  0.25831193  0.65351088     0.18870
C2701       C  0.88242383  0.19058836  0.71431032    -0.06970
C2702       C  0.89769137  0.16880069  0.72248103    -0.18090
C2703       C  0.91194421  0.15489784  0.70165628     0.10230
C2704       C  0.91048367  0.16236609  0.67183195    -0.06890
C2705       C  0.89242713  0.18167336  0.66332928    -0.18130
C2706       C  0.87862352  0.19596384  0.68420359     0.10260
S2707       S  0.93411825  0.13012521  0.71470809    -0.33090
S2708       S  0.85937554  0.22326966  0.67143024    -0.33100
H2709       H  0.84446281  0.22517430  0.69703591     0.28270
H2710       H  0.93635831  0.11719023  0.68784240     0.28270
H2711       H  0.90109861  0.16464206  0.74555033     0.18860
H2712       H  0.89125078  0.18777153  0.64048326     0.18870
C2713       C  0.90891309  0.16091720  0.96566814    -0.06970
C2714       C  0.88878729  0.17773700  0.97411465    -0.18090
C2715       C  0.87440416  0.19160608  0.95327615     0.10230
C2716       C  0.87970746  0.18782697  0.92350566    -0.06890
C2717       C  0.89565232  0.16679068  0.91544031    -0.18130
C2718       C  0.91075850  0.15359520  0.93622303     0.10260
S2719       S  0.85107203  0.21506482  0.96587863    -0.33090
S2720       S  0.93296667  0.12900922  0.92372595    -0.33100
H2721       H  0.93340134  0.11473080  0.95037020     0.28270
H2722       H  0.83591652  0.21478844  0.94026104     0.28270
H2723       H  0.88592038  0.18227740  0.99691479     0.18860
H2724       H  0.89867257  0.16250829  0.89261413     0.18870
C2725       C  0.93504364  0.33292014  0.71518934    -0.06970
C2726       C  0.94890568  0.35476819  0.72505593    -0.18090
C2727       C  0.96401833  0.36995160  0.70585094     0.10230
C2728       C  0.96492765  0.36350353  0.67597536    -0.06890
C2729       C  0.95076216  0.34197802  0.66596942    -0.18130
C2730       C  0.93598776  0.32653154  0.68521940     0.10260
S2731       S  0.98231397  0.39661363  0.72093566    -0.33090
S2732       S  0.91907541  0.29888577  0.67024528    -0.33100
H2733       H  0.89831245  0.29952641  0.69001528     0.28270
H2734       H  0.98343284  0.41199138  0.69510962     0.28270
H2735       H  0.94875578  0.35944254  0.74814970     0.18860
H2736       H  0.95174214  0.33677495  0.64304801     0.18870
C2737       C  0.93000375  0.32718467  0.93440786    -0.06970
C2738       C  0.94320285  0.35011958  0.92492768    -0.18090
C2739       C  0.96025517  0.36409849  0.94330251     0.10230
C2740       C  0.96426174  0.35575112  0.97276116    -0.06890
C2741       C  0.94958708  0.33374493  0.98261725    -0.18130
C2742       C  0.93307757  0.31948245  0.96404323     0.10260
S2743       S  0.97804535  0.39076431  0.92678470    -0.33090
S2744       S  0.91875107  0.28986880  0.97870925    -0.33100
H2745       H  0.89642497  0.29115875  0.96128341     0.28270
H2746       H  0.00218635  0.38077469  0.93561803     0.28270
H2747       H  0.94186683  0.35610649  0.90210754     0.18860
H2748       H  0.95172841  0.32662627  0.00499024     0.18870
C2749       C  0.14144039  0.37817494  0.70404320    -0.06970
C2750       C  0.12671846  0.39790856  0.71752160    -0.18090
C2751       C  0.11019425  0.41472384  0.70123629     0.10230
C2752       C  0.10931520  0.41345288  0.67030290    -0.06890
C2753       C  0.12667619  0.39611756  0.65672200    -0.18130
C2754       C  0.14197701  0.37819304  0.67306667     0.10260
S2755       S  0.08920640  0.43605864  0.72136278    -0.33090
S2756       S  0.16068661  0.35472019  0.65307715    -0.33100
H2757       H  0.17889355  0.34994244  0.67541923     0.28270
H2758       H  0.08520806  0.45428746  0.69832584     0.28270
H2759       H  0.12611277  0.39879682  0.74116153     0.18860
H2760       H  0.12700226  0.39483447  0.63312973     0.18870
C2761       C  0.10526039  0.40440349  0.96057179    -0.06970
C2762       C  0.09825408  0.41326367  0.93263680    -0.18090
C2763       C  0.10956068  0.40261459  0.90781082     0.10230
C2764       C  0.12630752  0.38072044  0.91120941    -0.06890
C2765       C  0.13561860  0.37411788  0.93907285    -0.18130
C2766       C  0.12627179  0.38674422  0.96380329     0.10260
S2767       S  0.10081894  0.41650269  0.87254735    -0.33090
S2768       S  0.14066861  0.37879157  0.99889185    -0.33100
H2769       H  0.16127588  0.36343397  0.48841996     0.28270
H2770       H  0.08849274  0.43911810  0.88286096     0.28270
H2771       H  0.08316536  0.42784339  0.93031499     0.18860
H2772       H  0.14956590  0.35841714  0.94147440     0.18870
C2773       C  0.07756372  0.23642096  0.90807725    -0.06970
C2774       C  0.05693988  0.21948188  0.90024905    -0.18090
C2775       C  0.04266924  0.20460602  0.92120747     0.10230
C2776       C  0.04941214  0.20526258  0.95121164    -0.06890
C2777       C  0.07125584  0.22048644  0.95867759    -0.18130
C2778       C  0.08476131  0.23624574  0.93807428     0.10260
S2779       S  0.01488707  0.18691035  0.90847270    -0.33090
S2780       S  0.10933070  0.25743727  0.95237778    -0.33100
H2781       H  0.09824015  0.28031573  0.94012849     0.28270
H2782       H  0.99855581  0.19485605  0.93124726     0.28270
H2783       H  0.05079934  0.21878743  0.87757331     0.18860
H2784       H  0.07687900  0.22162155  0.98151962     0.18870
C2785       C  0.08911176  0.22988498  0.70688089    -0.06970
C2786       C  0.06416320  0.22403039  0.71693491    -0.18090
C2787       C  0.04736120  0.20814107  0.70101615     0.10230
C2788       C  0.05539474  0.19785253  0.67384513    -0.06890
C2789       C  0.08079728  0.20320658  0.66429679    -0.18130
C2790       C  0.09753620  0.21928329  0.68027680     0.10260
S2791       S  0.01612539  0.20171350  0.71694817    -0.33090
S2792       S  0.12905022  0.22588892  0.66524891    -0.33100
H2793       H  0.13279564  0.25024146  0.67853523     0.28270
H2794       H  0.01459568  0.17581443  0.70693789     0.28270
H2795       H  0.05763435  0.23201450  0.73751909     0.18860
H2796       H  0.08730562  0.19601010  0.64336184     0.18870
C2797       C  0.01897198  0.32440032  0.74416355    -0.06970
C2798       C  0.00469321  0.33627474  0.76595265    -0.18090
C2799       C  0.99206047  0.31913196  0.78523839     0.10230
C2800       C  0.98674023  0.29300190  0.77573942    -0.06890
C2801       C  0.99092939  0.28738925  0.74603880    -0.18130
C2802       C  0.00592067  0.30464390  0.72931173     0.10260
S2803       S  0.99206332  0.32956704  0.82248387    -0.33090
S2804       S  0.01029545  0.29949401  0.69094414    -0.33100
H2805       H  0.02350403  0.32327027  0.68613092     0.28270
H2806       H  0.00870587  0.30928157  0.83024492     0.28270
H2807       H  0.01152583  0.35483748  0.77422641     0.18860
H2808       H  0.98456843  0.26927078  0.73656115     0.18870
C2809       C  0.56694105  0.27600114  0.62673241    -0.06970
C2810       C  0.54813690  0.28702854  0.60860111    -0.18090
C2811       C  0.52707951  0.29852584  0.62248462     0.10230
C2812       C  0.52992092  0.30560045  0.65227086    -0.06890
C2813       C  0.55496253  0.30459826  0.66466629    -0.18130
C2814       C  0.57454501  0.29127281  0.65029610     0.10260
S2815       S  0.49695235  0.29748386  0.60343714    -0.33090
S2816       S  0.60456852  0.28516763  0.66887306    -0.33100
H2817       H  0.61479430  0.26960930  0.64647871     0.28270
H2818       H  0.48512206  0.28224279  0.62556720     0.28270
H2819       H  0.54558804  0.27924804  0.58696281     0.18860
H2820       H  0.55855954  0.31075902  0.68669504     0.18870
C2821       C  0.28077732  0.32083237  0.88717627    -0.06970
C2822       C  0.26851785  0.29657584  0.88364852    -0.18090
C2823       C  0.24326228  0.29501417  0.87303839     0.10230
C2824       C  0.22963533  0.31821367  0.86586615    -0.06890
C2825       C  0.24175832  0.34256728  0.86977841    -0.18130
C2826       C  0.26715362  0.34413248  0.88038658     0.10260
S2827       S  0.22997970  0.26282686  0.86758920    -0.33090
S2828       S  0.28124792  0.37626202  0.88393114    -0.33100
H2829       H  0.30687614  0.36877087  0.87858629     0.28270
H2830       H  0.22003897  0.26889389  0.83961707     0.28270
H2831       H  0.27893294  0.27862101  0.88868940     0.18860
H2832       H  0.23149684  0.36046114  0.86411009     0.18870
C2833       C  0.37766433  0.37560615  0.54482130    -0.06970
C2834       C  0.37534241  0.36477618  0.57319042    -0.18090
C2835       C  0.38974677  0.37453206  0.59686641     0.10230
C2836       C  0.40718297  0.39561536  0.59239658    -0.06890
C2837       C  0.40709317  0.40854470  0.56499551    -0.18130
C2838       C  0.39222320  0.39904221  0.54145700     0.10260
S2839       S  0.38746632  0.35842213  0.63234668    -0.33090
S2840       S  0.39535665  0.41557357  0.50646276    -0.33100
H2841       H  0.37134127  0.40732727  0.49565552     0.28270
H2842       H  0.36898282  0.33956630  0.62460771     0.28270
H2843       H  0.36448100  0.34678417  0.57606170     0.18860
H2844       H  0.42017918  0.42479928  0.56117399     0.18870
C2845       C  0.39561520  0.37197607  0.82723601    -0.06970
C2846       C  0.42202471  0.36637957  0.82677323    -0.18090
C2847       C  0.44001338  0.38462306  0.81687329     0.10230
C2848       C  0.43133699  0.40740703  0.80232065    -0.06890
C2849       C  0.40484635  0.41343414  0.80256069    -0.18130
C2850       C  0.38699216  0.39637148  0.81595961     0.10260
S2851       S  0.47382589  0.37870666  0.82413429    -0.33090
S2852       S  0.35361635  0.40620842  0.81678833    -0.33100
H2853       H  0.34315758  0.38086163  0.81950376     0.28270
H2854       H  0.47190875  0.35147005  0.82901985     0.28270
H2855       H  0.42912652  0.34830484  0.83560137     0.18860
H2856       H  0.39797376  0.43091738  0.79120585     0.18870
C2857       C  0.46566729  0.20802652  0.57182333    -0.06970
C2858       C  0.46048893  0.23390156  0.58012058    -0.18090
C2859       C  0.44266699  0.24970586  0.56475030     0.10230
C2860       C  0.43027991  0.23993678  0.53957450    -0.06890
C2861       C  0.43454100  0.21350266  0.53223415    -0.18130
C2862       C  0.45173025  0.19745338  0.54825727     0.10260
S2863       S  0.43494667  0.28166468  0.57867290    -0.33090
S2864       S  0.45493186  0.16374642  0.53755880    -0.33100
H2865       H  0.47994803  0.15982375  0.54865526     0.28270
H2866       H  0.44135190  0.27562078  0.60797849     0.28270
H2867       H  0.47011741  0.24161961  0.59920731     0.18860
H2868       H  0.42500474  0.20536851  0.51330253     0.18870
C2869       C  0.43057058  0.24898672  0.81459459    -0.06970
C2870       C  0.45421711  0.25952293  0.80475939    -0.18090
C2871       C  0.47177998  0.24526390  0.78792148     0.10230
C2872       C  0.46544247  0.22005710  0.77750326    -0.06890
C2873       C  0.44131990  0.20952038  0.78618077    -0.18130
C2874       C  0.42430853  0.22328196  0.80518046     0.10260
S2875       S  0.50325953  0.25964983  0.78292098    -0.33090
S2876       S  0.39543253  0.20664475  0.81709467    -0.33100
H2877       H  0.39343298  0.21869715  0.84444081     0.28270
H2878       H  0.51683541  0.23576135  0.78360434     0.28270
H2879       H  0.46018852  0.27859414  0.81246630     0.18860
H2880       H  0.43579513  0.19035740  0.77846035     0.18870
C2881       C  0.73405386  0.25536244  0.88923482    -0.06970
C2882       C  0.74552307  0.23101035  0.88365123    -0.18090
C2883       C  0.76990112  0.22947808  0.87054121     0.10230
C2884       C  0.78341815  0.25272747  0.86340552    -0.06890
C2885       C  0.77194732  0.27702113  0.86901467    -0.18130
C2886       C  0.74755576  0.27860951  0.88186868     0.10260
S2887       S  0.78358711  0.19750432  0.86526945    -0.33090
S2888       S  0.73554491  0.31084725  0.89000326    -0.33100
H2889       H  0.72368274  0.30350060  0.91659069     0.28270
H2890       H  0.78912964  0.20230053  0.83553920     0.28270
H2891       H  0.73537221  0.21308213  0.88942608     0.18860
H2892       H  0.78246410  0.29494279  0.86414512     0.18870
C2893       C  0.61170802  0.15071115  0.58241937    -0.06970
C2894       C  0.62943327  0.16819481  0.59503328    -0.18090
C2895       C  0.64576935  0.18421686  0.57766950     0.10230
C2896       C  0.64557909  0.18232283  0.54675418    -0.06890
C2897       C  0.63095497  0.16184712  0.53459362    -0.18130
C2898       C  0.61353103  0.14676867  0.55182551     0.10260
S2899       S  0.66457461  0.20875029  0.59598518    -0.33090
S2900       S  0.59228371  0.12465780  0.53310823    -0.33100
H2901       H  0.58653515  0.10890160  0.55784319     0.28270
H2902       H  0.68240287  0.21256904  0.57308586     0.28270
H2903       H  0.62874691  0.17153632  0.61837664     0.18860
H2904       H  0.63034224  0.15996772  0.51098202     0.18870
C2905       C  0.59049448  0.18002512  0.79343726    -0.06970
C2906       C  0.58340862  0.20601376  0.79870953    -0.18090
C2907       C  0.59891604  0.22246640  0.81545916     0.10230
C2908       C  0.62146610  0.21213092  0.82890974    -0.06890
C2909       C  0.62849761  0.18598563  0.82355129    -0.18130
C2910       C  0.61347612  0.16999603  0.80568000     0.10260
S2911       S  0.58910454  0.25629099  0.81943385    -0.33090
S2912       S  0.62418206  0.13682489  0.80001095    -0.33100
H2913       H  0.59954355  0.12621956  0.79508632     0.28270
H2914       H  0.56655345  0.25532821  0.80231325     0.28270
H2915       H  0.56616601  0.21382854  0.78843017     0.18860
H2916       H  0.64552876  0.17773732  0.83396699     0.18870
C2917       C  0.58201123  0.31708357  0.55598758    -0.06970
C2918       C  0.55639367  0.32158111  0.54707994    -0.18090
C2919       C  0.54041193  0.33918646  0.56184422     0.10230
C2920       C  0.54993267  0.35225206  0.58675817    -0.06890
C2921       C  0.57583502  0.34805757  0.59513290    -0.18130
C2922       C  0.59185705  0.33076496  0.58006531     0.10260
S2923       S  0.50859416  0.34482633  0.54699081    -0.33090
S2924       S  0.62444846  0.32643065  0.59304509    -0.33100
H2925       H  0.62729494  0.30056408  0.58336088     0.28270
H2926       H  0.50698506  0.37107270  0.55578060     0.28270
H2927       H  0.54902592  0.31192549  0.52779569     0.18860
H2928       H  0.58347263  0.35748778  0.61439465     0.18870
C2929       C  0.55941965  0.37455216  0.80929499    -0.06970
C2930       C  0.54913378  0.37291025  0.83768047    -0.18090
C2931       C  0.56125930  0.35794638  0.86017115     0.10230
C2932       C  0.58386434  0.34287447  0.85424110    -0.06890
C2933       C  0.59541448  0.34673306  0.82664056    -0.18130
C2934       C  0.58371411  0.36249237  0.80451605     0.10260
S2935       S  0.54657843  0.35904971  0.89591343    -0.33090
S2936       S  0.59957934  0.36642905  0.76952516    -0.33100
H2937       H  0.62193763  0.35204286  0.77661662     0.28270
H2938       H  0.57015997  0.35820979  0.91123430     0.28270
H2939       H  0.53081689  0.38224136  0.84206761     0.18860
H2940       H  0.61300650  0.33626755  0.82178760     0.18870
C2941       C  0.52049688  0.22789463  0.99257877    -0.06970
C2942       C  0.50636797  0.22323731  0.96729812    -0.18090
C2943       C  0.49354715  0.24501259  0.95541531     0.10230
C2944       C  0.48698741  0.26572717  0.97461764    -0.06890
C2945       C  0.49191985  0.26242054  0.00484346    -0.18130
C2946       C  0.50846463  0.24262714  0.01416613     0.10260
S2947       S  0.49344235  0.24840081  0.91609499    -0.33090
S2948       S  0.52079878  0.24447147  0.55153246    -0.33100
H2949       H  0.52987158  0.21887310  0.54838875     0.28270
H2950       H  0.49679082  0.22171231  0.90979149     0.28270
H2951       H  0.51369067  0.20851688  0.95263757     0.18860
H2952       H  0.48523589  0.27830939  0.52290309     0.18870
C2953       C  0.55216356  0.06428039  0.74392743    -0.06970
C2954       C  0.55899078  0.04332248  0.72573281    -0.18090
C2955       C  0.56181656  0.01777503  0.73662561     0.10230
C2956       C  0.55683116  0.01218286  0.76646742    -0.06890
C2957       C  0.55153390  0.03307940  0.78523725    -0.18130
C2958       C  0.54944161  0.05909315  0.77444263     0.10260
S2959       S  0.57216892  0.99322541  0.71115276    -0.33090
S2960       S  0.54375669  0.08511833  0.80004803    -0.33100
H2961       H  0.54472221  0.06959462  0.82580451     0.28270
H2962       H  0.58597494  0.97809746  0.73193941     0.28270
H2963       H  0.56195269  0.04662701  0.70246093     0.18860
H2964       H  0.54810810  0.02884465  0.80823697     0.18870
C2965       C  0.46687451  0.55874159  0.76005078    -0.06970
C2966       C  0.46827798  0.55660378  0.72930655    -0.18090
C2967       C  0.46776899  0.53207391  0.71575927     0.10230
C2968       C  0.46483150  0.50908514  0.73312379    -0.06890
C2969       C  0.46118319  0.51145072  0.76340107    -0.18130
C2970       C  0.46294047  0.53555908  0.77710308     0.10260
S2971       S  0.47301563  0.53133663  0.67678311    -0.33090
S2972       S  0.46305645  0.53432801  0.81661569    -0.33100
H2973       H  0.48659152  0.54790708  0.81864721     0.28270
H2974       H  0.49149602  0.51118720  0.67843492     0.28270
H2975       H  0.47104113  0.57404191  0.71577841     0.18860
H2976       H  0.45883974  0.49393552  0.77696138     0.18870
C2977       C  0.45536786  0.77060562  0.86355166    -0.06970
C2978       C  0.45371113  0.78656137  0.83856385    -0.18090
C2979       C  0.47664235  0.79892510  0.83044794     0.10230
C2980       C  0.49505603  0.80430261  0.85268662    -0.06890
C2981       C  0.48876323  0.79780067  0.88195991    -0.18130
C2982       C  0.46816770  0.78102544  0.88767912     0.10260
S2983       S  0.48378779  0.79857623  0.79202816    -0.33090
S2984       S  0.46519364  0.76641924  0.92355166    -0.33100
H2985       H  0.44096622  0.75509006  0.91793808     0.28270
H2986       H  0.50688069  0.78452036  0.79623336     0.28270
H2987       H  0.44075363  0.78052511  0.82125873     0.18860
H2988       H  0.50100710  0.80349461  0.89989457     0.18870
C2989       C  0.43744943  0.82515915  0.95067629    -0.06970
C2990       C  0.45657601  0.84066806  0.96382253    -0.18090
C2991       C  0.47195271  0.85796025  0.94725360     0.10230
C2992       C  0.46867953  0.85948016  0.91666763    -0.06890
C2993       C  0.44896639  0.84462277  0.90359072    -0.18130
C2994       C  0.43313490  0.82774441  0.92027110     0.10260
S2995       S  0.49449297  0.87849561  0.96638248    -0.33090
S2996       S  0.40805644  0.81013034  0.90145271    -0.33100
H2997       H  0.39206934  0.80545430  0.92580534     0.28270
H2998       H  0.49409166  0.89941137  0.94591159     0.28270
H2999       H  0.45936943  0.83948766  0.98736626     0.18860
H3000       H  0.44624266  0.84573909  0.88003478     0.18870
C3001       C  0.47043776  0.86748449  0.69962597    -0.06970
C3002       C  0.44330671  0.86485606  0.70243564    -0.18090
C3003       C  0.42830554  0.84901941  0.68328542     0.10230
C3004       C  0.44050760  0.83385334  0.66144276    -0.06890
C3005       C  0.46770518  0.83722440  0.65880769    -0.18130
C3006       C  0.48231565  0.85353411  0.67695514     0.10260
S3007       S  0.39395898  0.84864629  0.68830181    -0.33090
S3008       S  0.51686943  0.85344287  0.67187959    -0.33100
H3009       H  0.52099876  0.87904267  0.68177442     0.28270
H3010       H  0.38861725  0.85198605  0.65821882     0.28270
H3011       H  0.43376173  0.87456952  0.72034983     0.18860
H3012       H  0.47847337  0.82653674  0.64258703     0.18870
C3013       C  0.41400423  0.64837074  0.92201175    -0.06970
C3014       C  0.39539998  0.66566611  0.91003809    -0.18090
C3015       C  0.38102888  0.68275999  0.92782029     0.10230
C3016       C  0.38426499  0.68220090  0.95863693    -0.06890
C3017       C  0.40057718  0.66275476  0.97075479    -0.18130
C3018       C  0.41561445  0.64631241  0.95295712     0.10260
S3019       S  0.36070421  0.70670769  0.90974217    -0.33090
S3020       S  0.43839380  0.62474848  0.97097277    -0.33100
H3021       H  0.44075424  0.60727271  0.94760106     0.28270
H3022       H  0.34498017  0.71152434  0.93416836     0.28270
H3023       H  0.39389091  0.66792569  0.88645906     0.18860
H3024       H  0.40374472  0.66217224  0.99424290     0.18870
C3025       C  0.39468070  0.70637351  0.67419314    -0.06970
C3026       C  0.41914090  0.71543957  0.68194477    -0.18090
C3027       C  0.43681078  0.69913596  0.69623675     0.10230
C3028       C  0.42861371  0.67435821  0.70697859    -0.06890
C3029       C  0.40352453  0.66569984  0.70055784    -0.18130
C3030       C  0.38681033  0.68106941  0.68332349     0.10260
S3031       S  0.46974492  0.71032027  0.69938657    -0.33090
S3032       S  0.35566627  0.66768621  0.67428387    -0.33100
H3033       H  0.34320127  0.69192917  0.66992655     0.28270
H3034       H  0.46689142  0.73467848  0.68483585     0.28270
H3035       H  0.42525487  0.73469070  0.67456734     0.18860
H3036       H  0.39693751  0.64690115  0.70907377     0.18870
C3037       C  0.59004705  0.73225858  0.95963266    -0.06970
C3038       C  0.56354996  0.73169194  0.96570949    -0.18090
C3039       C  0.54678149  0.71496118  0.95097187     0.10230
C3040       C  0.55630885  0.69905371  0.92818283    -0.06890
C3041       C  0.58317152  0.69915140  0.92283758    -0.18130
C3042       C  0.60004253  0.71544411  0.93831692     0.10260
S3043       S  0.51381218  0.71441440  0.96341701    -0.33090
S3044       S  0.63380356  0.71470815  0.92894925    -0.33100
H3045       H  0.63940010  0.74059765  0.93691933     0.28270
H3046       H  0.51119565  0.68708070  0.96082052     0.28270
H3047       H  0.55589764  0.74396441  0.98283565     0.18860
H3048       H  0.59111995  0.68728598  0.90558058     0.18870
C3049       C  0.55309073  0.71165940  0.71335435    -0.06970
C3050       C  0.57126838  0.73133514  0.72052293    -0.18090
C3051       C  0.58537862  0.74578627  0.69904538     0.10230
C3052       C  0.58119735  0.74170031  0.66870646    -0.06890
C3053       C  0.56341417  0.72170706  0.66150287    -0.18130
C3054       C  0.54999999  0.70656709  0.68301009     0.10260
S3055       S  0.60699859  0.77066022  0.71189094    -0.33090
S3056       S  0.52809577  0.68204820  0.66995814    -0.33100
H3057       H  0.54008697  0.66167460  0.68605876     0.28270
H3058       H  0.62865467  0.75903506  0.69888361     0.28270
H3059       H  0.57439925  0.73589603  0.74336101     0.18860
H3060       H  0.55970634  0.71781563  0.63860525     0.18870
C3061       C  0.64770554  0.87522100  0.95582278    -0.06970
C3062       C  0.62981034  0.89355100  0.96656640    -0.18090
C3063       C  0.61268007  0.90726682  0.94772860     0.10230
C3064       C  0.61391453  0.90372206  0.91711047    -0.06890
C3065       C  0.63374021  0.88775214  0.90621367    -0.18130
C3066       C  0.65027342  0.87337812  0.92506785     0.10260
S3067       S  0.58796169  0.92697300  0.96421732    -0.33090
S3068       S  0.67274795  0.85105177  0.90866485    -0.33100
H3069       H  0.68957334  0.84954562  0.93285587     0.28270
H3070       H  0.58298468  0.94267909  0.93920700     0.28270
H3071       H  0.62723413  0.89535455  0.98996229     0.18860
H3072       H  0.63480484  0.88443383  0.88283900     0.18870
C3073       C  0.63294003  0.87717595  0.66477613    -0.06970
C3074       C  0.61655866  0.89774376  0.65558134    -0.18090
C3075       C  0.60192808  0.91172846  0.67574760     0.10230
C3076       C  0.60494412  0.90596864  0.70578323    -0.06890
C3077       C  0.62448665  0.88841071  0.71490519    -0.18130
C3078       C  0.63812248  0.87357714  0.69476749     0.10260
S3079       S  0.57912041  0.93610681  0.66287420    -0.33090
S3080       S  0.66110445  0.84988268  0.70863135    -0.33100
H3081       H  0.67681558  0.85024103  0.68350116     0.28270
H3082       H  0.58492609  0.93442485  0.63285320     0.28270
H3083       H  0.61357127  0.90142229  0.63245562     0.18860
H3084       H  0.62788584  0.88461500  0.73796990     0.18870
C3085       C  0.52545286  0.83025713  0.50494445    -0.06970
C3086       C  0.50801428  0.83241919  0.52786454    -0.18090
C3087       C  0.49686904  0.80886356  0.53688333     0.10230
C3088       C  0.49267793  0.78926639  0.51577982    -0.06890
C3089       C  0.50174912  0.79359434  0.48707846    -0.18130
C3090       C  0.51823715  0.81465961  0.48133013     0.10260
S3091       S  0.49866182  0.80213171  0.57550307    -0.33090
S3092       S  0.53457995  0.81831427  0.94673108    -0.33100
H3093       H  0.53056998  0.79220455  0.93832420     0.28270
H3094       H  0.51056750  0.77764181  0.57219456     0.28270
H3095       H  0.51228551  0.84666754  0.54458660     0.18860
H3096       H  0.49757331  0.78029295  0.96975430     0.18870
C3097       C  0.96561088  0.01084702  0.99018943    -0.06970
C3098       C  0.96874444  0.01264055  0.52091247    -0.18090
C3099       C  0.96751481  0.03689092  0.53490426     0.10230
C3100       C  0.96294756  0.05999901  0.51815134    -0.06890
C3101       C  0.95733403  0.05786953  0.98823035    -0.18130
C3102       C  0.95934918  0.03397723  0.97382278     0.10260
S3103       S  0.97426880  0.03719437  0.57359629    -0.33090
S3104       S  0.95620191  0.03468259  0.93427098    -0.33100
H3105       H  0.94586757  0.06009054  0.93123434     0.28270
H3106       H  0.99258528  0.05744700  0.57100469     0.28270
H3107       H  0.97249887  0.99517496  0.53408609     0.18860
H3108       H  0.95361429  0.07558589  0.97552756     0.18870
C3109       C  0.05811265  0.55955859  0.98766178    -0.06970
C3110       C  0.05661823  0.53821642  0.96865053    -0.18090
C3111       C  0.05602472  0.51231741  0.97948013     0.10230
C3112       C  0.05601865  0.50745405  0.51039860    -0.06890
C3113       C  0.05919392  0.52886358  0.52910635    -0.18130
C3114       C  0.06085962  0.55454638  0.51818474     0.10260
S3115       S  0.05620119  0.48651335  0.95297110    -0.33090
S3116       S  0.06664761  0.58005813  0.54434988    -0.33100
H3117       H  0.08138796  0.59591025  0.52517459     0.28270
H3118       H  0.07241326  0.46962612  0.46997429     0.28270
H3119       H  0.05530619  0.54171911  0.94519623     0.18860
H3120       H  0.05997065  0.52571682  0.55264416     0.18870
C3121       C  0.95533663  0.79950549  0.88226836    -0.06970
C3122       C  0.95317748  0.78291505  0.90662562    -0.18090
C3123       C  0.97607284  0.77089604  0.91542811     0.10230
C3124       C  0.99524048  0.76614580  0.89393097    -0.06890
C3125       C  0.99016295  0.77364790  0.86466240    -0.18130
C3126       C  0.96943210  0.79014654  0.85847750     0.10260
S3127       S  0.98235653  0.77150010  0.95402554    -0.33090
S3128       S  0.96707980  0.80513817  0.82270568    -0.33100
H3129       H  0.94246192  0.81583174  0.82760260     0.28270
H3130       H  0.00527669  0.78591387  0.95041209     0.28270
H3131       H  0.93956500  0.78830405  0.92351895     0.18860
H3132       H  0.00336349  0.76884760  0.84728381     0.18870
C3133       C  0.73364530  0.81896186  0.62218592    -0.06970
C3134       C  0.74402401  0.79564195  0.63382427    -0.18090
C3135       C  0.76878294  0.79500908  0.64572560     0.10230
C3136       C  0.78366671  0.81812885  0.64593382    -0.06890
C3137       C  0.77306300  0.84171298  0.63530242    -0.18130
C3138       C  0.74809780  0.84240568  0.62354396     0.10260
S3139       S  0.78053716  0.76406742  0.65998504    -0.33090
S3140       S  0.73571496  0.87366984  0.61098632    -0.33100
H3141       H  0.70975307  0.86824120  0.61762797     0.28270
H3142       H  0.79370761  0.77499695  0.68379845     0.28270
H3143       H  0.73297486  0.77761842  0.63301549     0.18860
H3144       H  0.78445167  0.85952515  0.63566577     0.18870
C3145       C  0.97126781  0.70850408  0.82885692    -0.06970
C3146       C  0.95221634  0.72446904  0.84142985    -0.18090
C3147       C  0.93663777  0.74107173  0.82415349     0.10230
C3148       C  0.94068278  0.74238153  0.79367098    -0.06890
C3149       C  0.95896856  0.72562825  0.78100127    -0.18130
C3150       C  0.97411796  0.70857431  0.79819892     0.10260
S3151       S  0.91178718  0.75956499  0.84220107    -0.33090
S3152       S  0.99606308  0.68690703  0.77979737    -0.33100
H3153       H  0.99649042  0.66720111  0.80170631     0.28270
H3154       H  0.89532738  0.76263412  0.81790097     0.28270
H3155       H  0.94967881  0.72425730  0.86502175     0.18860
H3156       H  0.96140084  0.72578953  0.75739624     0.18870
C3157       C  0.92961354  0.73231352  0.58278486    -0.06970
C3158       C  0.94810079  0.71355093  0.59251754    -0.18090
C3159       C  0.96296974  0.69838696  0.57301176     0.10230
C3160       C  0.96021807  0.70200324  0.54236653    -0.06890
C3161       C  0.94041503  0.71939121  0.53273299    -0.18130
C3162       C  0.92519989  0.73415864  0.55225958     0.10260
S3163       S  0.98703150  0.67694194  0.58862712    -0.33090
S3164       S  0.90271114  0.75735722  0.53668345    -0.33100
H3165       H  0.88269345  0.75035479  0.55602845     0.28270
H3166       H  0.98055151  0.65579143  0.57068449     0.28270
H3167       H  0.95204126  0.71161255  0.61578642     0.18860
H3168       H  0.93763926  0.72266988  0.50940791     0.18870
C3169       C  0.91381054  0.92128247  0.82752111    -0.06970
C3170       C  0.89603363  0.90276360  0.83881549    -0.18090
C3171       C  0.88304643  0.88501085  0.82043778     0.10230
C3172       C  0.88685459  0.88616353  0.78974763    -0.06890
C3173       C  0.90215871  0.90670648  0.77830423    -0.18130
C3174       C  0.91576790  0.92387725  0.79667512     0.10260
S3175       S  0.86396097  0.85956182  0.83761652    -0.33090
S3176       S  0.93741003  0.94713052  0.77955446    -0.33100
H3177       H  0.93835941  0.96432239  0.80332465     0.28270
H3178       H  0.84902223  0.85401997  0.81271559     0.28270
H3179       H  0.89428414  0.90009442  0.86231397     0.18860
H3180       H  0.90563994  0.90779930  0.75489247     0.18870
C3181       C  0.89206130  0.86337516  0.57315362    -0.06970
C3182       C  0.91636035  0.85393961  0.56527951    -0.18090
C3183       C  0.93461474  0.87034324  0.55214262     0.10230
C3184       C  0.92700518  0.89548158  0.54195480    -0.06890
C3185       C  0.90194037  0.90438953  0.54795673    -0.18130
C3186       C  0.88477324  0.88900174  0.56451788     0.10260
S3187       S  0.96766634  0.85913533  0.55050136    -0.33090
S3188       S  0.85381962  0.90281298  0.57344240    -0.33100
H3189       H  0.84097415  0.87872447  0.57734632     0.28270
H3190       H  0.96342435  0.83314448  0.56007994     0.28270
H3191       H  0.92203343  0.83439710  0.57200865     0.18860
H3192       H  0.89577698  0.92345750  0.53977543     0.18870
C3193       C  0.23635019  0.75612481  0.63365735    -0.06970
C3194       C  0.24755783  0.73153975  0.62874686    -0.18090
C3195       C  0.27211160  0.72957510  0.61617680     0.10230
C3196       C  0.28596076  0.75260589  0.60899994    -0.06890
C3197       C  0.27477544  0.77710654  0.61419093    -0.18130
C3198       C  0.25026894  0.77911793  0.62650129     0.10260
S3199       S  0.28553117  0.69744135  0.61141446    -0.33090
S3200       S  0.23841967  0.81155564  0.63392788    -0.33100
H3201       H  0.22687830  0.80464669  0.66082357     0.28270
H3202       H  0.28761464  0.70080954  0.58088382     0.28270
H3203       H  0.23705789  0.71382567  0.63453875     0.18860
H3204       H  0.28545825  0.79487518  0.60907034     0.18870
C3205       C  0.09066693  0.83516550  0.79684461    -0.06970
C3206       C  0.08860757  0.86221628  0.79001706    -0.18090
C3207       C  0.07101370  0.87836998  0.80445758     0.10230
C3208       C  0.05476261  0.86739057  0.82605390    -0.06890
C3209       C  0.05712949  0.84070694  0.83347693    -0.18130
C3210       C  0.07526177  0.82473670  0.81987900     0.10260
S3211       S  0.06955566  0.91250271  0.79361641    -0.33090
S3212       S  0.07848291  0.79177864  0.83428917    -0.33100
H3213       H  0.10544939  0.79099368  0.83095269     0.28270
H3214       H  0.04358432  0.91639520  0.80120730     0.28270
H3215       H  0.10003459  0.87080092  0.77246932     0.18860
H3216       H  0.04545180  0.83244297  0.85105160     0.18870
C3217       C  0.08264559  0.83297411  0.58286874    -0.06970
C3218       C  0.08618673  0.82580298  0.55349254    -0.18090
C3219       C  0.07215128  0.83775719  0.53007017     0.10230
C3220       C  0.05366247  0.85799258  0.53517319    -0.06890
C3221       C  0.05116314  0.86607407  0.56444360    -0.18130
C3222       C  0.06525833  0.85414116  0.58786709     0.10260
S3223       S  0.07914322  0.82631496  0.49386962    -0.33090
S3224       S  0.06031472  0.86733478  0.62382896    -0.33100
H3225       H  0.08566037  0.86268439  0.63367462     0.28270
H3226       H  0.05830259  0.80930005  0.99422077     0.28270
H3227       H  0.09929943  0.80990278  0.54872121     0.18860
H3228       H  0.03762728  0.88155716  0.56937083     0.18870
C3229       C  0.12518745  0.70723835  0.58114074    -0.06970
C3230       C  0.09938308  0.71405447  0.57634063    -0.18090
C3231       C  0.08220330  0.69673512  0.56339185     0.10230
C3232       C  0.09184713  0.67361027  0.55084951    -0.06890
C3233       C  0.11796463  0.66700212  0.55490738    -0.18130
C3234       C  0.13449780  0.68312263  0.57088500     0.10260
S3235       S  0.04827248  0.70486220  0.56326733    -0.33090
S3236       S  0.16727160  0.67236596  0.57660723    -0.33100
H3237       H  0.17790091  0.69747191  0.58019297     0.28270
H3238       H  0.04971455  0.72739564  0.08063608     0.28270
H3239       H  0.09214924  0.73234942  0.58456071     0.18860
H3240       H  0.12558659  0.64939680  0.54514918     0.18870
C3241       C  0.14659595  0.69232722  0.79330402    -0.06970
C3242       C  0.12732469  0.67531977  0.78288593    -0.18090
C3243       C  0.11072900  0.66147574  0.80217064     0.10230
C3244       C  0.11382982  0.66351126  0.83286684    -0.06890
C3245       C  0.13508509  0.67791084  0.84314867    -0.18130
C3246       C  0.15115245  0.69242763  0.82387730     0.10260
S3247       S  0.08403831  0.64397480  0.78637491    -0.33090
S3248       S  0.17567641  0.71281441  0.83972361    -0.33100
H3249       H  0.19083299  0.71496889  0.81424146     0.28270
H3250       H  0.07959819  0.62742547  0.81082773     0.28270
H3251       H  0.12312663  0.67505155  0.75964597     0.18860
H3252       H  0.13761170  0.68013868  0.86656374     0.18870
C3253       C  0.02416620  0.73757402  0.73796637    -0.06970
C3254       C  0.00843953  0.73557690  0.71334336    -0.18090
C3255       C  0.99729807  0.75904767  0.70372835     0.10230
C3256       C  0.99199658  0.77854460  0.72468271    -0.06890
C3257       C  0.99876578  0.77353741  0.75419467    -0.18130
C3258       C  0.01473175  0.75238769  0.76116623     0.10260
S3259       S  0.99901440  0.76539179  0.66497954    -0.33090
S3260       S  0.02872628  0.75019630  0.79716687    -0.33100
H3261       H  0.03980324  0.72536665  0.79298071     0.28270
H3262       H  0.01156571  0.78964721  0.66797288     0.28270
H3263       H  0.01395880  0.72157294  0.69685879     0.18860
H3264       H  0.99380360  0.78713383  0.77120669     0.18870
loop_ 
_geom_bond_atom_site_label_1 
_geom_bond_atom_site_label_2 
_geom_bond_distance 
_geom_bond_site_symmetry_2 
_ccdc_geom_bond_type 
Zr1           O2   2.438       .  S
Zr1           O3   2.430       .  S
Zr1           O4   2.437       .  S
Zr1           O7   2.533       .  S
Zr1           O9   2.422       .  S
Zr1          O10   2.380       .  S
Zr1          O11   2.432       .  S
Zr1          O12   2.389       .  S
O2           H58   0.990       .  S
O2           H66   0.990       .  S
O3           C23   1.278       .  A
O4           C25   1.287       .  A
O5          Zr15   2.440       .  S
O5           C24   1.286       .  A
O6          Zr14   2.436       .  S
O6           C25   1.286       .  A
O7           C24   1.305       .  A
O8          Zr16   2.410       .  S
O8           C23   1.269       .  A
O9          Zr14   2.406       .  S
O9          Zr16   2.360       .  S
O10         Zr15   2.365       .  S
O10         Zr16   2.382       .  S
O10          H45   0.961       .  S
O11         Zr14   2.434       .  S
O11         Zr31   2.396       .  S
O11          H48   0.965       .  S
O12         Zr15   2.396       .  S
O12         Zr31   2.405       .  S
Zr13         O38   2.439       .  S
Zr13         O32   2.448       .  S
Zr13         O40   2.367       .  S
Zr13         O28   2.427       .  S
Zr13         O19   2.406       .  S
Zr13         O20   2.411       .  S
Zr13         O21   2.368       .  S
Zr13         O22   2.394       .  S
Zr14         O33   2.433       .  S
Zr14         O26   2.435       .  S
Zr14         O27   2.507       .  S
Zr14         O20   2.402       .  S
Zr14         O21   2.398       .  S
Zr15         O17   2.435       .  S
Zr15         O39   2.439       .  S
Zr15         O41   2.447       .  S
Zr15         O19   2.366       .  S
Zr15         O22   2.371       .  S
Zr16         O42   2.433       .  S
Zr16         O43   2.436       .  S
Zr16         O18   2.435       .  S
Zr16         O19   2.376       .  S
Zr16         O20   2.373       .  S
O17          H54   0.990       .  S
O18          H49   0.990       .  S
O18          H63   0.990       .  S
O20          H46   0.963       .  S
O21         Zr31   2.392       .  S
O22         Zr31   2.385       .  S
O22          H47   0.964       .  S
C23        C1597   1.463       .  S
C24        C1585   1.532       .  S
C25        C1561   1.470       .  S
O26          H62   0.990       .  S
O27          C29   1.292       .  A
O28          C29   1.272       .  A
C29        C1609   1.502       .  S
O30         Zr31   2.440       .  S
O30          H59   0.990       .  S
Zr31         O34   2.436       .  S
Zr31         O35   2.437       .  S
Zr31         O36   2.430       .  S
O32          C37   1.285       .  A
O33          H50   0.990       .  S
O33          H65   0.990       .  S
O34          H51   0.990       .  S
O35          H55   0.990       .  S
O35          H64   0.990       .  S
O36          C37   1.283       .  A
C37        C1573   1.492       .  S
O38          H57   0.989       .  S
O38          H61   0.989       .  S
O39          H53   0.990       .  S
O39          H60   0.990       .  S
O40          C44   1.268       .  A
O41          C44   1.296       .  A
O42          H52   0.990       .  S
O43          H56   0.990       .  S
C44        C1621   1.458       .  S
Zr67         O68   2.439       .  S
Zr67         O69   2.430       .  S
Zr67         O70   2.430       .  S
Zr67         O73   2.558       .  S
Zr67         O75   2.428       .  S
Zr67         O76   2.372       .  S
Zr67         O77   2.438       .  S
Zr67         O78   2.364       .  S
O68         H124   0.990       .  S
O68         H132   0.990       .  S
O69          C89   1.278       .  A
O70          C91   1.285       .  A
O71         Zr81   2.385       .  S
O71          C90   1.276       .  A
O72         Zr80   2.439       .  S
O72          C91   1.287       .  A
O73          C90   1.310       .  A
O74         Zr82   2.413       .  S
O74          C89   1.269       .  A
O75         Zr80   2.410       .  S
O75         Zr82   2.363       .  S
O76         Zr81   2.360       .  S
O76         Zr82   2.389       .  S
O76         H111   0.961       .  S
O77         Zr80   2.430       .  S
O77         Zr97   2.383       .  S
O77         H114   0.965       .  S
O78         Zr81   2.385       .  S
O78         Zr97   2.402       .  S
Zr79        O104   2.434       .  S
Zr79         O98   2.473       .  S
Zr79        O106   2.390       .  S
Zr79         O94   2.426       .  S
Zr79         O85   2.412       .  S
Zr79         O86   2.408       .  S
Zr79         O87   2.383       .  S
Zr79         O88   2.392       .  S
Zr80         O99   2.433       .  S
Zr80         O92   2.434       .  S
Zr80         O93   2.511       .  S
Zr80         O86   2.397       .  S
Zr80         O87   2.392       .  S
Zr81         O83   2.448       .  S
Zr81        O105   2.453       .  S
Zr81        O107   2.411       .  S
Zr81         O85   2.389       .  S
Zr81         O88   2.372       .  S
Zr82        O108   2.432       .  S
Zr82        O109   2.436       .  S
Zr82         O84   2.436       .  S
Zr82         O85   2.387       .  S
Zr82         O86   2.374       .  S
O83         H120   0.990       .  S
O84         H115   0.990       .  S
O84         H129   0.990       .  S
O86         H112   0.964       .  S
O87         Zr97   2.393       .  S
O88         Zr97   2.381       .  S
O88         H113   0.963       .  S
C89        C1549   1.465       .  S
C90        C1525   1.521       .  S
C91        C1504   1.465       .  S
O92         H128   0.990       .  S
O93          C95   1.298       .  A
O94          C95   1.280       .  A
C95        C1540   1.500       .  S
O96         Zr97   2.440       .  S
O96         H125   0.990       .  S
Zr97        O100   2.436       .  S
Zr97        O101   2.440       .  S
Zr97        O102   2.409       .  S
O98         C103   1.291       .  A
O99         H116   0.990       .  S
O99         H131   0.990       .  S
O100        H117   0.990       .  S
O101        H121   0.990       .  S
O101        H130   0.990       .  S
O102        C103   1.278       .  A
C103       C1516   1.474       .  S
O104        H123   0.990       .  S
O104        H127   0.988       .  S
O105        H119   0.990       .  S
O105        H126   0.990       .  S
O106        C110   1.269       .  A
O107        C110   1.270       .  A
O108        H118   0.990       .  S
O109        H122   0.990       .  S
C110       C1624   1.463       .  S
Zr133       O134   2.439   1_455  S
Zr133       O136   2.429       .  S
Zr133      O1767   2.434       .  S
Zr133      O1771   2.559   1_455  S
Zr133       O141   2.426       .  S
Zr133       O142   2.368       .  S
Zr133       O143   2.441       .  S
Zr133       O144   2.368   1_455  S
O134        H198   0.990       .  S
O134       H1822   0.990   1_655  S
O135      Zr1765   2.434   1_554  S
O135        C155   1.277       .  A
O136        C157   1.286       .  A
O137      Zr1779   2.385   1_654  S
O137        C156   1.276       .  A
O138       Zr146   2.447       .  S
O138        C157   1.289       .  A
O139      Zr1765   2.559   1_654  S
O139        C156   1.310       .  A
O140      Zr1780   2.407   1_554  S
O140        C155   1.269       .  A
O141       Zr146   2.409       .  S
O141       Zr148   2.366       .  S
O142       Zr147   2.351       .  S
O142       Zr148   2.382       .  S
O142        H177   0.960       .  S
O143       Zr146   2.430       .  S
O143       Zr163   2.389   1_455  S
O143        H180   0.966       .  S
O144       Zr147   2.387   1_655  S
O144       Zr163   2.410       .  S
Zr145       O170   2.436       .  S
Zr145       O164   2.455       .  S
Zr145       O172   2.390       .  S
Zr145       O160   2.417       .  S
Zr145       O151   2.408       .  S
Zr145       O152   2.404       .  S
Zr145       O153   2.385       .  S
Zr145       O154   2.386       .  S
Zr146       O165   2.434       .  S
Zr146       O158   2.434       .  S
Zr146       O159   2.515       .  S
Zr146       O152   2.397       .  S
Zr146       O153   2.390       .  S
Zr147       O149   2.447   1_455  S
Zr147       O171   2.456       .  S
Zr147       O173   2.408       .  S
Zr147      O1769   2.385   1_455  S
Zr147       O151   2.391       .  S
Zr147       O154   2.360       .  S
Zr148       O174   2.435       .  S
Zr148       O175   2.435       .  S
Zr148       O150   2.436       .  S
Zr148      O1772   2.407       .  S
Zr148       O151   2.391       .  S
Zr148       O152   2.374       .  S
O149        H186   0.990       .  S
O150        H181   0.990       .  S
O150        H195   0.990       .  S
O152        H178   0.965       .  S
O153       Zr163   2.389   1_455  S
O154       Zr163   2.368   1_455  S
O154        H179   0.962   1_455  S
C155       C1600   1.470       .  S
C156       C1528   1.524       .  S
C157       C1477   1.482       .  S
O158        H194   0.990       .  S
O159        C161   1.299       .  A
O160        C161   1.280       .  A
C161       C1612   1.499       .  S
O162       Zr163   2.440       .  S
O162        H191   0.990       .  S
Zr163       O166   2.435       .  S
Zr163       O167   2.440       .  S
Zr163       O168   2.431       .  S
O164        C169   1.289   1_455  A
O165        H182   0.990       .  S
O165        H197   0.990       .  S
O166        H183   0.990       .  S
O167        H187   0.990       .  S
O167        H196   0.990       .  S
O168        C169   1.283       .  A
C169       C1513   1.476       .  S
O170        H189   0.990       .  S
O170        H193   0.989       .  S
O171        H185   0.990       .  S
O171        H192   0.989       .  S
O172        C176   1.272       .  A
O173        C176   1.269       .  A
O174        H184   0.990       .  S
O175        H188   0.990       .  S
C176       C1492   1.461   1_455  S
H190       O1766   0.990   1_455  S
Zr199       O200   2.438   1_655  S
Zr199       O202   2.443       .  S
Zr199      O1833   2.430       .  S
Zr199      O1837   2.530   1_655  S
Zr199       O207   2.421       .  S
Zr199       O208   2.383       .  S
Zr199       O209   2.431   1_655  S
Zr199       O210   2.390   1_655  S
O200        H264   0.990       .  S
O200       H1888   0.990       .  S
O201      Zr1831   2.431   1_554  S
O201        C221   1.278       .  A
O202        C223   1.289       .  A
O203       Zr213   2.446       .  S
O203       C1854   1.286       .  A
O204       Zr212   2.430       .  S
O204        C223   1.284       .  A
O205      Zr1831   2.531   1_454  S
O205        C222   1.305       .  A
O206       Zr214   2.410       .  S
O206       C1853   1.271       .  A
O207       Zr212   2.406       .  S
O207       Zr214   2.357       .  S
O208       Zr213   2.362   1_655  S
O208       Zr214   2.375       .  S
O208        H243   0.958       .  S
O209       Zr212   2.436   1_455  S
O209       Zr229   2.402       .  S
O209        H246   0.966       .  S
O210       Zr213   2.401       .  S
O210       Zr229   2.403       .  S
Zr211       O236   2.435       .  S
Zr211       O230   2.445   1_655  S
Zr211       O238   2.359       .  S
Zr211       O226   2.423       .  S
Zr211       O217   2.406       .  S
Zr211       O218   2.413       .  S
Zr211       O219   2.364       .  S
Zr211       O220   2.394   1_655  S
Zr212       O231   2.435       .  S
Zr212       O224   2.435       .  S
Zr212       O225   2.505       .  S
Zr212       O218   2.400       .  S
Zr212       O219   2.397       .  S
Zr213       O215   2.438       .  S
Zr213       O237   2.438   1_455  S
Zr213       O239   2.471   1_455  S
Zr213       O217   2.357   1_455  S
Zr213       O220   2.366       .  S
Zr214       O240   2.436       .  S
Zr214       O241   2.435       .  S
Zr214       O216   2.435       .  S
Zr214       O217   2.374       .  S
Zr214       O218   2.379       .  S
O215        H252   0.990       .  S
O216        H247   0.990       .  S
O216        H261   0.990       .  S
O218        H244   0.963       .  S
O219       Zr229   2.392   1_655  S
O220       Zr229   2.387       .  S
O220        H245   0.963       .  S
C221       O1838   1.271   1_554  A
C221       C1552   1.470       .  S
C222       O1835   1.286   1_554  A
C222       C1588   1.539       .  S
C223       C1465   1.490   1_565  S
O224        H260   0.990       .  S
O225        C227   1.290       .  A
O226        C227   1.271       .  A
C227       C1537   1.503       .  S
O228       Zr229   2.439       .  S
O228        H257   0.990       .  S
Zr229       O232   2.437       .  S
Zr229       O233   2.437       .  S
Zr229       O234   2.434       .  S
O230        C235   1.285       .  A
O231        H248   0.990       .  S
O231        H263   0.990   1_655  S
O232        H249   0.990       .  S
O233        H253   0.990       .  S
O233        H262   0.990       .  S
O234        C235   1.282       .  A
C235       C1576   1.470       .  S
O236        H255   0.989       .  S
O236        H259   0.990       .  S
O237        H251   0.989       .  S
O237        H258   0.990       .  S
O238        C242   1.266       .  A
O239        C242   1.300       .  A
O240        H250   0.990       .  S
O241        H254   0.990       .  S
C242       C1489   1.459       .  S
H256       O1832   0.990       .  S
Zr265       O266   2.440       .  S
Zr265       O267   2.447       .  S
Zr265       O268   2.423       .  S
Zr265       O271   2.521       .  S
Zr265       O273   2.410       .  S
Zr265       O274   2.378       .  S
Zr265       O275   2.434       .  S
Zr265       O276   2.390       .  S
O266        H322   0.990       .  S
O266        H330   0.990       .  S
O267        C287   1.283       .  A
O268        C289   1.283       .  A
O269       Zr279   2.446       .  S
O269        C288   1.287       .  A
O270       Zr278   2.436       .  S
O270        C289   1.286       .  A
O271        C288   1.302       .  A
O272       Zr280   2.392       .  S
O272        C287   1.268       .  A
O273       Zr278   2.400       .  S
O273       Zr280   2.365       .  S
O274       Zr279   2.376       .  S
O274       Zr280   2.384       .  S
O274        H309   0.965       .  S
O275       Zr278   2.433       .  S
O275       Zr295   2.408       .  S
O275        H312   0.966       .  S
O276       Zr279   2.394       .  S
O276       Zr295   2.408       .  S
Zr277       O302   2.441   1_554  S
Zr277       O304   2.364       .  S
Zr277      O1928   2.440   1_554  S
Zr277      O1924   2.424   1_554  S
Zr277       O283   2.409       .  S
Zr277       O284   2.402       .  S
Zr277       O285   2.366       .  S
Zr277       O286   2.397       .  S
Zr278       O297   2.433       .  S
Zr278       O290   2.434       .  S
Zr278       O291   2.501   1_554  S
Zr278       O284   2.401       .  S
Zr278       O285   2.398       .  S
Zr279       O281   2.436       .  S
Zr279       O303   2.438       .  S
Zr279       O305   2.456       .  S
Zr279       O283   2.371       .  S
Zr279       O286   2.372       .  S
Zr280       O306   2.443       .  S
Zr280       O307   2.437       .  S
Zr280       O282   2.438       .  S
Zr280       O283   2.366       .  S
Zr280       O284   2.369       .  S
O281        H318   0.990       .  S
O282        H313   0.990       .  S
O282        H327   0.990       .  S
O284        H310   0.961       .  S
O285       Zr295   2.388       .  S
O286       Zr295   2.379       .  S
O286        H311   0.963       .  S
C287       C1441   1.469       .  S
C288       C1420   1.534       .  S
C289       C1501   1.470       .  S
O290        H326   0.990       .  S
O291       C1925   1.290       .  A
O292      Zr1909   2.423       .  S
O292        C293   1.272       .  A
C293       O1923   1.290       .  A
C293       C1429   1.501       .  S
O294       Zr295   2.439       .  S
O294        H323   0.990       .  S
Zr295       O298   2.436       .  S
Zr295       O299   2.437       .  S
Zr295       O300   2.449   1_554  S
O296      Zr1909   2.438       .  S
O296        C301   1.284       .  A
O297        H314   0.990   1_554  S
O297        H329   0.990       .  S
O298        H315   0.990   1_554  S
O299        H319   0.990       .  S
O299        H328   0.990       .  S
O300       C1933   1.285       .  A
C301       O1932   1.285       .  A
C301       C1405   1.472       .  S
O302        H321   0.988       .  S
O302        H325   0.990       .  S
O303        H317   0.990       .  S
O303        H324   0.990       .  S
O304        C308   1.266       .  A
O305        C308   1.298       .  A
O306        H316   0.990       .  S
O307        H320   0.990       .  S
C308       C1453   1.457       .  S
Zr331       O332   2.439       .  S
Zr331       O333   2.423       .  S
Zr331       O334   2.430       .  S
Zr331       O337   2.584       .  S
Zr331       O339   2.433       .  S
Zr331       O340   2.369       .  S
Zr331       O341   2.443       .  S
Zr331       O342   2.360       .  S
O332        H388   0.990       .  S
O332        H396   0.990       .  S
O333        C353   1.278       .  A
O334        C355   1.286       .  A
O335       Zr345   2.358       .  S
O335        C354   1.273       .  A
O336       Zr344   2.448       .  S
O336        C355   1.289       .  A
O337        C354   1.314       .  A
O338       Zr346   2.415       .  S
O338        C353   1.269       .  A
O339       Zr344   2.410       .  S
O339       Zr346   2.361       .  S
O340       Zr345   2.355       .  S
O340       Zr346   2.382       .  S
O340        H375   0.962       .  S
O341       Zr344   2.435       .  S
O341       Zr361   2.381       .  S
O341        H378   0.966       .  S
O342       Zr345   2.386       .  S
O342       Zr361   2.405       .  S
Zr343       O368   2.436   1_554  S
Zr343       O370   2.388       .  S
Zr343      O1994   2.475   1_554  S
Zr343      O1990   2.416   1_554  S
Zr343       O349   2.412       .  S
Zr343       O350   2.413       .  S
Zr343       O351   2.384       .  S
Zr343       O352   2.383       .  S
Zr344       O363   2.433       .  S
Zr344       O356   2.433       .  S
Zr344       O357   2.520   1_554  S
Zr344       O350   2.399       .  S
Zr344       O351   2.391       .  S
Zr345       O347   2.452       .  S
Zr345       O369   2.456       .  S
Zr345       O371   2.414       .  S
Zr345       O349   2.378       .  S
Zr345       O352   2.358       .  S
Zr346       O372   2.434       .  S
Zr346       O373   2.436       .  S
Zr346       O348   2.436       .  S
Zr346       O349   2.392       .  S
Zr346       O350   2.375       .  S
O347        H384   0.990       .  S
O348        H379   0.991       .  S
O348        H393   0.990       .  S
O350        H376   0.964       .  S
O351       Zr361   2.389       .  S
O352       Zr361   2.378       .  S
O352        H377   0.963       .  S
C353       C1393   1.463       .  S
C354       C1372   1.543       .  S
C355       C1564   1.473       .  S
O356        H392   0.990       .  S
O357       C1991   1.298       .  A
O358      Zr1975   2.416       .  S
O358        C359   1.277       .  A
C359       O1989   1.298       .  A
C359       C1384   1.501       .  S
O360       Zr361   2.440       .  S
O360        H389   0.990       .  S
Zr361       O364   2.436   1_554  S
Zr361       O365   2.440       .  S
Zr361       O366   2.414   1_554  S
O362      Zr1975   2.474       .  S
O362        C367   1.292       .  A
O363        H380   0.990   1_554  S
O363        H395   0.990       .  S
O364        H381   0.990       .  S
O365        H385   0.990       .  S
O365        H394   0.990       .  S
O366       C1999   1.279       .  A
C367       O1998   1.279       .  A
C367       C1357   1.477       .  S
O368        H387   0.990   1_556  S
O368        H391   0.987       .  S
O369        H383   0.989       .  S
O369        H390   0.990       .  S
O370        C374   1.270       .  A
O371        C374   1.270       .  A
O372        H382   0.990       .  S
O373        H386   0.990       .  S
C374       C1456   1.459       .  S
Zr397       O398   2.438       .  S
Zr397       O399   2.431       .  S
Zr397       O400   2.437       .  S
Zr397       O403   2.525       .  S
Zr397       O405   2.419       .  S
Zr397       O406   2.375       .  S
Zr397       O407   2.431       .  S
Zr397       O408   2.392       .  S
O398        H454   0.990       .  S
O398        H462   0.990       .  S
O399        C419   1.279       .  A
O400        C421   1.287       .  A
O401       Zr411   2.444       .  S
O401        C420   1.287       .  A
O402       Zr410   2.430       .  S
O402        C421   1.285       .  A
O403        C420   1.303       .  A
O404       Zr412   2.410       .  S
O404        C419   1.272       .  A
O405       Zr410   2.407       .  S
O405       Zr412   2.356       .  S
O406       Zr411   2.362       .  S
O406       Zr412   2.374       .  S
O406        H441   0.958       .  S
O407       Zr410   2.433       .  S
O407       Zr427   2.402       .  S
O407        H444   0.966       .  S
O408       Zr411   2.397       .  S
O408       Zr427   2.402       .  S
Zr409       O434   2.433       .  S
Zr409       O428   2.451       .  S
Zr409       O436   2.371       .  S
Zr409       O424   2.430       .  S
Zr409       O415   2.399       .  S
Zr409       O416   2.413       .  S
Zr409       O417   2.365       .  S
Zr409       O418   2.395       .  S
Zr410       O429   2.435       .  S
Zr410       O422   2.435       .  S
Zr410       O423   2.504       .  S
Zr410       O416   2.398       .  S
Zr410       O417   2.395       .  S
Zr411       O413   2.436       .  S
Zr411       O435   2.439       .  S
Zr411       O437   2.458       .  S
Zr411       O415   2.355       .  S
Zr411       O418   2.374       .  S
Zr412       O438   2.436       .  S
Zr412       O439   2.435       .  S
Zr412       O414   2.435       .  S
Zr412       O415   2.370       .  S
Zr412       O416   2.379       .  S
O413        H450   0.990       .  S
O414        H445   0.990       .  S
O414        H459   0.990       .  S
O416        H442   0.963       .  S
O417       Zr427   2.393       .  S
O418       Zr427   2.388       .  S
O418        H443   0.964       .  S
C419       C1396   1.471       .  S
C420       C1417   1.537       .  S
C421       C1333   1.485       .  S
O422        H458   0.990       .  S
O423        C425   1.292       .  A
O424        C425   1.273       .  A
C425       C1381   1.504       .  S
O426       Zr427   2.440       .  S
O426        H455   0.990       .  S
Zr427       O430   2.436       .  S
Zr427       O431   2.437       .  S
Zr427       O432   2.432       .  S
O428        C433   1.286       .  A
O429        H446   0.990       .  S
O429        H461   0.990       .  S
O430        H447   0.990       .  S
O431        H451   0.990       .  S
O431        H460   0.990       .  S
O432        C433   1.283       .  A
C433       C1408   1.495       .  S
O434        H453   0.990       .  S
O434        H457   0.989       .  S
O435        H449   0.989       .  S
O435        H456   0.990       .  S
O436        C440   1.269       .  A
O437        C440   1.298       .  A
O438        H448   0.990       .  S
O439        H452   0.990       .  S
C440       C1345   1.461       .  S
Zr463       O464   2.439       .  S
Zr463       O465   2.447       .  S
Zr463       O466   2.433       .  S
Zr463       O469   2.556       .  S
Zr463       O471   2.416       .  S
Zr463       O472   2.372       .  S
Zr463       O473   2.441       .  S
Zr463       O474   2.373       .  S
O464        H520   0.990       .  S
O464        H528   0.990       .  S
O465        C485   1.280       .  A
O466        C487   1.287       .  A
O467       Zr477   2.381       .  S
O467        C486   1.274       .  A
O468       Zr476   2.448       .  S
O468        C487   1.289       .  A
O469        C486   1.310       .  A
O470       Zr478   2.396       .  S
O470        C485   1.266       .  A
O471       Zr476   2.401       .  S
O471       Zr478   2.369       .  S
O472       Zr477   2.371       .  S
O472       Zr478   2.392       .  S
O472        H507   0.966       .  S
O473       Zr476   2.427       .  S
O473       Zr493   2.389       .  S
O473        H510   0.965       .  S
O474       Zr477   2.384       .  S
O474       Zr493   2.412       .  S
Zr475       O500   2.436       .  S
Zr475       O494   2.457       .  S
Zr475       O502   2.387       .  S
Zr475       O490   2.429       .  S
Zr475       O481   2.409       .  S
Zr475       O482   2.395       .  S
Zr475       O483   2.385       .  S
Zr475       O484   2.391       .  S
Zr476       O495   2.434       .  S
Zr476       O488   2.433       .  S
Zr476       O489   2.501       .  S
Zr476       O482   2.401       .  S
Zr476       O483   2.393       .  S
Zr477       O479   2.448       .  S
Zr477       O501   2.450       .  S
Zr477       O503   2.409       .  S
Zr477       O481   2.389       .  S
Zr477       O484   2.363       .  S
Zr478       O504   2.444       .  S
Zr478       O505   2.438       .  S
Zr478       O480   2.447       .  S
Zr478       O481   2.382       .  S
Zr478       O482   2.372       .  S
O479        H516   0.990       .  S
O480        H511   0.990       .  S
O480        H525   0.990       .  S
O482        H508   0.963       .  S
O483       Zr493   2.391       .  S
O484       Zr493   2.367       .  S
O484        H509   0.962       .  S
C485       C1444   1.474       .  S
C486       C1369   1.508       .  S
C487       C1324   1.482   1_565  S
O488        H524   0.990       .  S
O489        C491   1.297       .  A
O490        C491   1.282       .  A
C491       C1432   1.496       .  S
O492       Zr493   2.440       .  S
O492        H521   0.990       .  S
Zr493       O496   2.435       .  S
Zr493       O497   2.440       .  S
Zr493       O498   2.434       .  S
O494        C499   1.290       .  A
O495        H512   0.990       .  S
O495        H527   0.990       .  S
O496        H513   0.990       .  S
O497        H517   0.990       .  S
O497        H526   0.990       .  S
O498        C499   1.284       .  A
C499       C1360   1.480       .  S
O500        H519   0.990       .  S
O500        H523   0.988       .  S
O501        H515   0.990       .  S
O501        H522   0.990       .  S
O502        C506   1.271       .  A
O503        C506   1.270       .  A
O504        H514   0.990       .  S
O505        H518   0.990       .  S
C506       C1348   1.465       .  S
Zr529       O530   2.439       .  S
Zr529       O531   2.436       .  S
Zr529       O532   2.440       .  S
Zr529       O535   2.511       .  S
Zr529       O537   2.417       .  S
Zr529       O538   2.392       .  S
Zr529       O539   2.430       .  S
Zr529       O540   2.389       .  S
O530        H586   0.990       .  S
O530        H594   0.990       .  S
O531        C551   1.278       .  A
O532        C553   1.287       .  A
O533       Zr543   2.429       .  S
O533        C552   1.283       .  A
O534       Zr542   2.439       .  S
O534        C553   1.287       .  A
O535        C552   1.301       .  A
O536       Zr544   2.405       .  S
O536        C551   1.270       .  A
O537       Zr542   2.410       .  S
O537       Zr544   2.364       .  S
O538       Zr543   2.367       .  S
O538       Zr544   2.380       .  S
O538        H573   0.962       .  S
O539       Zr542   2.431       .  S
O539       Zr559   2.399       .  S
O539        H576   0.966       .  S
O540       Zr543   2.400       .  S
O540       Zr559   2.399       .  S
Zr541       O566   2.425       .  S
Zr541       O568   2.344       .  S
Zr541      O2192   2.461       .  S
Zr541      O2188   2.416       .  S
Zr541       O547   2.402       .  S
Zr541       O548   2.406       .  S
Zr541       O549   2.368       .  S
Zr541       O550   2.382       .  S
Zr542       O561   2.433       .  S
Zr542       O554   2.434       .  S
Zr542       O555   2.516       .  S
Zr542       O548   2.394       .  S
Zr542       O549   2.392       .  S
Zr543       O545   2.435       .  S
Zr543       O567   2.437       .  S
Zr543       O569   2.455       .  S
Zr543       O547   2.362       .  S
Zr543       O550   2.353       .  S
Zr544       O570   2.437       .  S
Zr544       O571   2.435       .  S
Zr544       O546   2.435       .  S
Zr544       O547   2.382       .  S
Zr544       O548   2.380       .  S
O545        H582   0.990       .  S
O546        H577   0.990       .  S
O546        H591   0.990       .  S
O548        H574   0.964       .  S
O549       Zr559   2.387       .  S
O550       Zr559   2.383       .  S
O550        H575   0.963       .  S
C551       C1276   1.479       .  S
C552       C1300   1.521       .  S
C553       C1249   1.476       .  S
O554        H590   0.990       .  S
O555       C2189   1.295       .  A
O556      Zr2173   2.418   1_554  S
O556        C557   1.275       .  A
C557       O2187   1.294       .  A
C557       C1264   1.506       .  S
O558       Zr559   2.439       .  S
O558        H587   0.990       .  S
Zr559       O562   2.437       .  S
Zr559       O563   2.437       .  S
Zr559       O564   2.430       .  S
O560      Zr2173   2.460   1_554  S
O560        C565   1.290       .  A
O561        H578   0.990       .  S
O561        H593   0.990       .  S
O562        H579   0.990       .  S
O563        H583   0.990       .  S
O563        H592   0.990       .  S
O564       C2197   1.283       .  A
C565       O2196   1.282       .  A
C565       C1285   1.472       .  S
O566        H585   0.983       .  S
O566        H589   0.990       .  S
O567        H581   0.990       .  S
O567        H588   0.990       .  S
O568        C572   1.266       .  A
O569        C572   1.296       .  A
O570        H580   0.990       .  S
O571        H584   0.990       .  S
C572       C1309   1.462       .  S
Zr595       O596   2.439       .  S
Zr595       O597   2.438       .  S
Zr595       O598   2.437       .  S
Zr595       O601   2.554       .  S
Zr595       O603   2.436       .  S
Zr595       O604   2.372       .  S
Zr595       O605   2.441       .  S
Zr595       O606   2.382       .  S
O596        H652   0.990       .  S
O596        H660   0.990       .  S
O597        C617   1.274       .  A
O598        C619   1.287       .  A
O599       Zr609   2.374       .  S
O599        C618   1.273       .  A
O600       Zr608   2.447       .  S
O600        C619   1.289       .  A
O601        C618   1.307       .  A
O602       Zr610   2.406       .  S
O602        C617   1.266       .  A
O603       Zr608   2.411       .  S
O603       Zr610   2.379       .  S
O604       Zr609   2.353       .  S
O604       Zr610   2.394       .  S
O604        H639   0.962       .  S
O605       Zr608   2.429       .  S
O605       Zr625   2.389       .  S
O605        H642   0.966       .  S
O606       Zr609   2.388       .  S
O606       Zr625   2.416       .  S
Zr607       O632   2.442       .  S
Zr607       O634   2.381       .  S
Zr607      O2258   2.446       .  S
Zr607      O2254   2.389       .  S
Zr607       O613   2.397       .  S
Zr607       O614   2.397       .  S
Zr607       O615   2.382       .  S
Zr607       O616   2.380       .  S
Zr608       O627   2.434       .  S
Zr608       O620   2.434       .  S
Zr608       O621   2.520       .  S
Zr608       O614   2.386       .  S
Zr608       O615   2.391       .  S
Zr609       O611   2.443       .  S
Zr609       O633   2.455       .  S
Zr609       O635   2.401       .  S
Zr609       O613   2.397       .  S
Zr609       O616   2.354       .  S
Zr610       O636   2.431       .  S
Zr610       O637   2.440       .  S
Zr610       O612   2.444       .  S
Zr610       O613   2.384       .  S
Zr610       O614   2.380       .  S
O611        H648   0.990       .  S
O612        H643   0.988       .  S
O612        H657   0.990       .  S
O614        H640   0.963       .  S
O615       Zr625   2.383       .  S
O616       Zr625   2.366       .  S
O616        H641   0.963       .  S
C617       C1213   1.469       .  S
C618       C1237   1.515       .  S
C619       C1189   1.472       .  S
O620        H656   0.990       .  S
O621       C2255   1.301       .  A
O622      Zr2239   2.367   1_554  S
O622        C623   1.278       .  A
C623       O2253   1.300       .  A
C623       C1201   1.511       .  S
O624       Zr625   2.440       .  S
O624        H653   0.990       .  S
Zr625       O628   2.436       .  S
Zr625       O629   2.439       .  S
Zr625       O630   2.444       .  S
O626      Zr2239   2.445   1_554  S
O626        C631   1.288       .  A
O627        H644   0.990       .  S
O627        H659   0.990       .  S
O628        H645   0.990       .  S
O629        H649   0.990       .  S
O629        H658   0.990       .  S
O630       C2263   1.286       .  A
C631       O2262   1.287   1_554  A
C631       C1228   1.494       .  S
O632        H651   0.990       .  S
O632        H655   0.990       .  S
O633        H647   0.989       .  S
O633        H654   0.989       .  S
O634        C638   1.273       .  A
O635        C638   1.270       .  A
O636        H646   0.990       .  S
O637        H650   0.991       .  S
C638       C1312   1.458       .  S
Zr661       O662   2.438       .  S
Zr661       O663   2.437       .  S
Zr661       O664   2.453       .  S
Zr661       O667   2.524       .  S
Zr661       O669   2.417       .  S
Zr661       O670   2.392       .  S
Zr661       O671   2.434       .  S
Zr661       O672   2.393       .  S
O662        H718   0.990       .  S
O662        H726   0.990       .  S
O663        C683   1.280       .  A
O664        C685   1.289       .  A
O665       Zr675   2.420       .  S
O665        C684   1.282       .  A
O666       Zr674   2.426       .  S
O666        C685   1.286       .  A
O667        C684   1.302       .  A
O668       Zr676   2.405       .  S
O668        C683   1.269       .  A
O669       Zr674   2.407       .  S
O669       Zr676   2.358       .  S
O670       Zr675   2.370       .  S
O670       Zr676   2.386       .  S
O670        H705   0.965       .  S
O671       Zr674   2.430       .  S
O671       Zr691   2.403       .  S
O671        H708   0.966       .  S
O672       Zr675   2.396       .  S
O672       Zr691   2.402       .  S
Zr673       O698   2.421       .  S
Zr673       O692   2.472       .  S
Zr673       O700   2.388       .  S
Zr673       O688   2.442       .  S
Zr673       O679   2.395       .  S
Zr673       O680   2.411       .  S
Zr673       O681   2.369       .  S
Zr673       O682   2.391       .  S
Zr674       O693   2.433       .  S
Zr674       O686   2.435       .  S
Zr674       O687   2.502       .  S
Zr674       O680   2.397       .  S
Zr674       O681   2.394       .  S
Zr675       O677   2.439       .  S
Zr675       O699   2.427       .  S
Zr675       O701   2.447       .  S
Zr675       O679   2.349       .  S
Zr675       O682   2.362       .  S
Zr676       O702   2.435       .  S
Zr676       O703   2.435       .  S
Zr676       O678   2.436       .  S
Zr676       O679   2.364       .  S
Zr676       O680   2.379       .  S
O677        H714   0.990       .  S
O678        H709   0.990       .  S
O678        H723   0.990       .  S
O680        H706   0.962       .  S
O681       Zr691   2.396       .  S
O682       Zr691   2.392       .  S
O682        H707   0.963       .  S
C683       C1273   1.466       .  S
C684       C1240   1.516       .  S
C685       C1321   1.496       .  S
O686        H722   0.991       .  S
O687        C689   1.292       .  A
O688        C689   1.276       .  A
C689       C1261   1.506       .  S
O690       Zr691   2.440       .  S
O690        H719   0.990       .  S
Zr691       O694   2.437       .  S
Zr691       O695   2.438       .  S
Zr691       O696   2.427       .  S
O692        C697   1.290       .  A
O693        H710   0.990       .  S
O693        H725   0.990       .  S
O694        H711   0.990       .  S
O695        H715   0.990       .  S
O695        H724   0.990       .  S
O696        C697   1.280       .  A
C697       C1225   1.480       .  S
O698        H717   0.991       .  S
O698        H721   0.986       .  S
O699        H713   0.988       .  S
O699        H720   0.990       .  S
O700        C704   1.271       .  A
O701        C704   1.293       .  A
O702        H712   0.990       .  S
O703        H716   0.990       .  S
C704       C1177   1.464       .  S
Zr727       O728   2.437       .  S
Zr727       O729   2.424       .  S
Zr727       O730   2.415       .  S
Zr727       O733   2.534       .  S
Zr727       O735   2.422       .  S
Zr727       O736   2.389       .  S
Zr727       O737   2.441       .  S
Zr727       O738   2.385       .  S
O728        H784   0.990       .  S
O728        H792   0.990       .  S
O729        C749   1.273       .  A
O730        C751   1.285       .  A
O731       Zr741   2.400       .  S
O731        C750   1.276       .  A
O732       Zr740   2.452       .  S
O732        C751   1.290       .  A
O733        C750   1.304       .  A
O734       Zr742   2.411       .  S
O734        C749   1.267       .  A
O735       Zr740   2.404       .  S
O735       Zr742   2.361       .  S
O736       Zr741   2.382       .  S
O736       Zr742   2.393       .  S
O736        H771   0.961       .  S
O737       Zr740   2.436       .  S
O737       Zr757   2.390       .  S
O737        H774   0.966       .  S
O738       Zr741   2.391       .  S
O738       Zr757   2.413       .  S
Zr739       O764   2.451       .  S
Zr739       O758   2.458       .  S
Zr739       O766   2.357       .  S
Zr739       O754   2.406       .  S
Zr739       O745   2.402       .  S
Zr739       O746   2.402       .  S
Zr739       O747   2.380       .  S
Zr739       O748   2.401       .  S
Zr740       O759   2.434       .  S
Zr740       O752   2.433       .  S
Zr740       O753   2.533       .  S
Zr740       O746   2.394       .  S
Zr740       O747   2.383       .  S
Zr741       O743   2.443       .  S
Zr741       O765   2.439       .  S
Zr741       O767   2.442       .  S
Zr741       O745   2.385       .  S
Zr741       O748   2.348       .  S
Zr742       O768   2.435       .  S
Zr742       O769   2.440       .  S
Zr742       O744   2.440       .  S
Zr742       O745   2.381       .  S
Zr742       O746   2.385       .  S
O743        H780   0.989       .  S
O744        H775   0.989       .  S
O744        H789   0.990       .  S
O746        H772   0.964       .  S
O747       Zr757   2.381       .  S
O748       Zr757   2.370       .  S
O748        H773   0.961       .  S
C749       C1216   1.466       .  S
C750       C1297   1.513       .  S
C751       C1336   1.479       .  S
O752        H788   0.990       .  S
O753        C755   1.297       .  A
O754        C755   1.266       .  A
C755       C1204   1.512       .  S
O756       Zr757   2.440       .  S
O756        H785   0.990       .  S
Zr757       O760   2.435       .  S
Zr757       O761   2.439       .  S
Zr757       O762   2.438       .  S
O758        C763   1.291       .  A
O759        H776   0.990       .  S
O759        H791   0.990       .  S
O760        H777   0.990       .  S
O761        H781   0.990       .  S
O761        H790   0.989       .  S
O762        C763   1.286       .  A
C763       C1288   1.486       .  S
O764        H783   0.990       .  S
O764        H787   0.988       .  S
O765        H779   0.991       .  S
O765        H786   0.990       .  S
O766        C770   1.264       .  A
O767        C770   1.281       .  A
O768        H778   0.990       .  S
O769        H782   0.990       .  S
C770       C1180   1.464       .  S
Zr793       O794   2.440       .  S
Zr793       O795   2.462       .  S
Zr793       O796   2.452       .  S
Zr793       O799   2.536       .  S
Zr793       O801   2.404       .  S
Zr793       O802   2.381       .  S
Zr793       O803   2.430       .  S
Zr793       O804   2.392       .  S
O794        H850   0.990       .  S
O794        H858   0.990       .  S
O795        C815   1.289       .  A
O796        C817   1.288       .  A
O797       Zr807   2.417       .  S
O797        C816   1.283       .  A
O798       Zr806   2.428       .  S
O798        C817   1.283       .  A
O799        C816   1.306       .  A
O800       Zr808   2.380       .  S
O800        C815   1.266       .  A
O801       Zr806   2.406       .  S
O801       Zr808   2.373       .  S
O802       Zr807   2.388       .  S
O802       Zr808   2.374       .  S
O802        H837   0.964       .  S
O803       Zr806   2.427       .  S
O803       Zr823   2.401       .  S
O803        H840   0.964       .  S
O804       Zr807   2.399       .  S
O804       Zr823   2.397       .  S
Zr805       O830   2.404       .  S
Zr805       O824   2.452       .  S
Zr805       O832   2.371       .  S
Zr805       O820   2.459       .  S
Zr805       O811   2.411       .  S
Zr805       O812   2.377       .  S
Zr805       O813   2.368       .  S
Zr805       O814   2.383       .  S
Zr806       O825   2.433       .  S
Zr806       O818   2.434       .  S
Zr806       O819   2.488       .  S
Zr806       O812   2.397       .  S
Zr806       O813   2.401       .  S
Zr807       O809   2.435       .  S
Zr807       O831   2.448       .  S
Zr807       O833   2.480       .  S
Zr807       O811   2.364       .  S
Zr807       O814   2.364       .  S
Zr808       O834   2.440       .  S
Zr808       O835   2.437       .  S
Zr808       O810   2.443       .  S
Zr808       O811   2.377       .  S
Zr808       O812   2.344       .  S
O809        H846   0.990       .  S
O810        H841   0.988       .  S
O810        H855   0.990       .  S
O812        H838   0.958       .  S
O813       Zr823   2.395       .  S
O814       Zr823   2.386       .  S
O814        H839   0.963       .  S
C815       C1132   1.471       .  S
C816       C1141   1.529       .  S
C817       C1192   1.475       .  S
O818        H854   0.990       .  S
O819        C821   1.290       .  A
O820        C821   1.282       .  A
C821       C1117   1.509       .  S
O822       Zr823   2.439       .  S
O822        H851   0.990       .  S
Zr823       O826   2.436       .  S
Zr823       O827   2.437       .  S
Zr823       O828   2.428       .  S
O824        C829   1.284       .  A
O825        H842   0.990       .  S
O825        H857   0.990       .  S
O826        H843   0.990       .  S
O827        H847   0.990       .  S
O827        H856   0.990       .  S
O828        C829   1.280       .  A
C829       C1153   1.476       .  S
O830        H849   0.990       .  S
O830        H853   0.987       .  S
O831        H845   0.990       .  S
O831        H852   0.988       .  S
O832        C836   1.268       .  A
O833        C836   1.302       .  A
O834        H844   0.990       .  S
O835        H848   0.990       .  S
C836       C1165   1.480       .  S
Zr859       O860   2.440       .  S
Zr859       O861   2.446       .  S
Zr859       O862   2.432       .  S
Zr859       O865   2.549       .  S
Zr859       O867   2.408       .  S
Zr859       O868   2.382       .  S
Zr859       O869   2.441       .  S
Zr859       O870   2.377       .  S
O860        H916   0.990       .  S
O860        H924   0.990       .  S
O861        C881   1.283       .  A
O862        C883   1.285       .  A
O863       Zr873   2.377       .  S
O863        C882   1.273       .  A
O864       Zr872   2.447       .  S
O864        C883   1.287       .  A
O865        C882   1.307       .  A
O866       Zr874   2.394       .  S
O866        C881   1.267       .  A
O867       Zr872   2.391       .  S
O867       Zr874   2.369       .  S
O868       Zr873   2.371       .  S
O868       Zr874   2.392       .  S
O868        H903   0.966       .  S
O869       Zr872   2.424       .  S
O869       Zr889   2.394       .  S
O869        H906   0.965       .  S
O870       Zr873   2.378       .  S
O870       Zr889   2.415       .  S
Zr871       O896   2.447       .  S
Zr871       O890   2.433       .  S
Zr871       O898   2.403       .  S
Zr871       O886   2.420       .  S
Zr871       O877   2.411       .  S
Zr871       O878   2.403       .  S
Zr871       O879   2.386       .  S
Zr871       O880   2.394       .  S
Zr872       O891   2.434       .  S
Zr872       O884   2.433       .  S
Zr872       O885   2.483       .  S
Zr872       O878   2.402       .  S
Zr872       O879   2.398       .  S
Zr873       O875   2.439       .  S
Zr873       O897   2.444       .  S
Zr873       O899   2.394       .  S
Zr873       O877   2.395       .  S
Zr873       O880   2.396       .  S
Zr874       O900   2.441       .  S
Zr874       O901   2.438       .  S
Zr874       O876   2.443       .  S
Zr874       O877   2.373       .  S
Zr874       O878   2.370       .  S
O875        H912   0.989       .  S
O876        H907   0.989       .  S
O876        H921   0.990       .  S
O878        H904   0.963       .  S
O879       Zr889   2.386       .  S
O880       Zr889   2.379       .  S
O880        H905   0.963       .  S
C881       C1084   1.467       .  S
C882       C1105   1.511       .  S
C883       C1252   1.474       .  S
O884        H920   0.990       .  S
O885        C887   1.292       .  A
O886        C887   1.279       .  A
C887       C1069   1.481       .  S
O888       Zr889   2.440       .  S
O888        H917   0.990       .  S
Zr889       O892   2.436       .  S
Zr889       O893   2.442       .  S
Zr889       O894   2.432       .  S
O890        C895   1.283       .  A
O891        H908   0.990       .  S
O891        H923   0.990       .  S
O892        H909   0.990       .  S
O893        H913   0.990       .  S
O893        H922   0.990       .  S
O894        C895   1.283       .  A
C895       C1093   1.474       .  S
O896        H915   0.991       .  S
O896        H919   0.991       .  S
O897        H911   0.989       .  S
O897        H918   0.990       .  S
O898        C902   1.272       .  A
O899        C902   1.263       .  A
O900        H910   0.990       .  S
O901        H914   0.990       .  S
C902       C1168   1.472       .  S
Zr925       O926   2.439   1_654  S
Zr925       O928   2.425       .  S
Zr925      O2559   2.456   1_554  S
Zr925      O2563   2.561   1_654  S
Zr925       O933   2.403       .  S
Zr925       O934   2.366       .  S
Zr925       O935   2.446       .  S
Zr925       O936   2.378   1_655  S
O926        H990   0.990       .  S
O926       H2614   0.990       .  S
O927      Zr2557   2.456       .  S
O927        C947   1.285       .  A
O928        C949   1.286       .  A
O929       Zr939   2.370   1_556  S
O929       C2580   1.274       .  A
O930       Zr938   2.448       .  S
O930        C949   1.288       .  A
O931      Zr2557   2.559   1_455  S
O931        C948   1.310       .  A
O932       Zr940   2.397       .  S
O932       C2579   1.268   1_554  A
O933       Zr938   2.388       .  S
O933       Zr940   2.365       .  S
O934       Zr939   2.368   1_655  S
O934       Zr940   2.384       .  S
O934        H969   0.965   1_554  S
O935       Zr938   2.424       .  S
O935       Zr955   2.387   1_655  S
O935        H972   0.965   1_655  S
O936       Zr939   2.384       .  S
O936       Zr955   2.422       .  S
Zr937       O962   2.440       .  S
Zr937       O956   2.429   1_655  S
Zr937       O964   2.407   1_655  S
Zr937       O952   2.426       .  S
Zr937       O943   2.406       .  S
Zr937       O944   2.393       .  S
Zr937       O945   2.389       .  S
Zr937       O946   2.387   1_655  S
Zr938       O957   2.433       .  S
Zr938       O950   2.434       .  S
Zr938       O951   2.482       .  S
Zr938       O944   2.406       .  S
Zr938       O945   2.390       .  S
Zr939       O941   2.446       .  S
Zr939       O963   2.449   1_455  S
Zr939       O965   2.399       .  S
Zr939       O943   2.385   1_455  S
Zr939       O946   2.366       .  S
Zr940       O966   2.441   1_554  S
Zr940       O967   2.437       .  S
Zr940       O942   2.442       .  S
Zr940       O943   2.385       .  S
Zr940       O944   2.364       .  S
O941        H978   0.990       .  S
O942        H973   0.990       .  S
O942        H987   0.990       .  S
O944        H970   0.963       .  S
O945       Zr955   2.386   1_655  S
O946       Zr955   2.351       .  S
O946        H971   0.963       .  S
C947       O2564   1.268       .  A
C947       C1081   1.469       .  S
C948       O2561   1.274       .  A
C948       C1144   1.518       .  S
C949       C1468   1.482       .  S
O950        H986   0.990       .  S
O951        C953   1.294       .  A
O952        C953   1.284       .  A
C953       C1072   1.483       .  S
O954       Zr955   2.440       .  S
O954        H983   0.990       .  S
Zr955       O958   2.435       .  S
Zr955       O959   2.440       .  S
Zr955       O960   2.453       .  S
O956        C961   1.285       .  A
O957        H974   0.990       .  S
O957        H989   0.990       .  S
O958        H975   0.990       .  S
O959        H979   0.990       .  S
O959        H988   0.990       .  S
O960        C961   1.288       .  A
C961       C1156   1.493       .  S
O962        H981   0.990       .  S
O962        H985   0.990       .  S
O963        H977   0.990   1_554  S
O963        H984   0.990       .  S
O964        C968   1.276       .  A
O965        C968   1.267       .  A
O966        H976   0.990       .  S
O967        H980   0.990       .  S
C968       C1060   1.466       .  S
H982       O2558   0.990       .  S
Zr991       O992   2.439   1_554  S
Zr991       O994   2.445       .  S
Zr991      O2625   2.455   1_554  S
Zr991      O2629   2.545   1_454  S
Zr991       O999   2.412       .  S
Zr991      O1000   2.382       .  S
Zr991      O1001   2.436       .  S
Zr991      O1002   2.384   1_455  S
O992       H1056   0.990   1_455  S
O992       H2680   0.990       .  S
O993      Zr2623   2.455       .  S
O993       C1013   1.287       .  A
O994       C1015   1.287       .  A
O995      Zr1005   2.404   1_655  S
O995       C2646   1.280   1_554  A
O996      Zr1004   2.428       .  S
O996       C1015   1.285       .  A
O997      Zr2623   2.545   1_655  S
O997       C1014   1.307       .  A
O998      Zr1006   2.382       .  S
O998       C2645   1.265   1_554  A
O999      Zr1004   2.406       .  S
O999      Zr1006   2.360       .  S
O1000     Zr1005   2.386       .  S
O1000     Zr1006   2.387       .  S
O1000      H1035   0.965       .  S
O1001     Zr1004   2.433       .  S
O1001     Zr1021   2.410   1_455  S
O1001      H1038   0.966       .  S
O1002     Zr1005   2.390   1_655  S
O1002     Zr1021   2.392       .  S
Zr1003     O1028   2.399       .  S
Zr1003     O1022   2.441       .  S
Zr1003     O1030   2.411       .  S
Zr1003     O1018   2.446       .  S
Zr1003     O1009   2.380       .  S
Zr1003     O1010   2.396       .  S
Zr1003     O1011   2.367       .  S
Zr1003     O1012   2.388       .  S
Zr1004     O1023   2.433       .  S
Zr1004     O1016   2.436       .  S
Zr1004     O1017   2.502       .  S
Zr1004     O1010   2.399       .  S
Zr1004     O1011   2.399       .  S
Zr1005     O1007   2.437   1_455  S
Zr1005     O1029   2.443       .  S
Zr1005     O1031   2.455       .  S
Zr1005     O1009   2.337       .  S
Zr1005     O1012   2.378       .  S
Zr1006     O1032   2.439       .  S
Zr1006     O1033   2.437       .  S
Zr1006     O1008   2.444       .  S
Zr1006     O1009   2.349       .  S
Zr1006     O1010   2.361       .  S
O1007      H1044   0.990       .  S
O1008      H1039   0.989       .  S
O1008      H1053   0.990       .  S
O1010      H1036   0.958       .  S
O1011     Zr1021   2.392   1_455  S
O1012     Zr1021   2.393   1_455  S
O1012      H1037   0.964   1_455  S
C1013      O2630   1.265       .  A
C1013      C1129   1.469       .  S
C1014      O2627   1.280       .  A
C1014      C1108   1.531       .  S
C1015      C1480   1.488       .  S
O1016      H1052   0.991       .  S
O1017      C1019   1.291       .  A
O1018      C1019   1.275       .  A
C1019      C1120   1.508       .  S
O1020     Zr1021   2.440       .  S
O1020      H1049   0.990       .  S
Zr1021     O1024   2.437       .  S
Zr1021     O1025   2.437       .  S
Zr1021     O1026   2.431       .  S
O1022      C1027   1.283   1_455  A
O1023      H1040   0.990       .  S
O1023      H1055   0.990       .  S
O1024      H1041   0.990       .  S
O1025      H1045   0.990       .  S
O1025      H1054   0.990       .  S
O1026      C1027   1.282       .  A
C1027      C1096   1.468       .  S
O1028      H1047   0.987       .  S
O1028      H1051   0.990       .  S
O1029      H1043   0.990   1_554  S
O1029      H1050   0.988       .  S
O1030      C1034   1.277       .  A
O1031      C1034   1.297       .  A
O1032      H1042   0.990       .  S
O1033      H1046   0.990       .  S
C1034      C1057   1.476       .  S
H1048      O2624   0.990       .  S
C1057      C1058   1.391       .  A
C1057      C1062   1.394       .  A
C1058      C1059   1.396       .  A
C1058      H1067   1.084       .  S
C1059      C1060   1.430       .  A
C1059      S1063   1.791       .  S
C1060      C1061   1.409       .  A
C1061      C1062   1.394       .  A
C1061      H1068   1.083       .  S
C1062      S1064   1.774       .  S
S1063      H1066   1.404       .  S
S1064      H1065   1.408       .  S
C1069      C1070   1.409       .  A
C1069      C1074   1.409       .  A
C1070      C1071   1.406       .  A
C1070      H1079   1.084       .  S
C1071      C1072   1.409       .  A
C1071      S1075   1.802       .  S
C1072      C1073   1.408       .  A
C1073      C1074   1.405       .  A
C1073      H1080   1.084       .  S
C1074      S1076   1.802       .  S
S1075      H1078   1.407       .  S
S1076      H1077   1.407       .  S
C1081      C1082   1.409       .  A
C1081      C1086   1.404       .  A
C1082      C1083   1.391       .  A
C1082      H1091   1.080       .  S
C1083      C1084   1.403       .  A
C1083      S1087   1.803       .  S
C1084      C1085   1.409       .  A
C1085      C1086   1.393       .  A
C1085      H1092   1.079       .  S
C1086      S1088   1.803       .  S
S1087      H1090   1.408       .  S
S1088      H1089   1.407       .  S
C1093      C1094   1.406       .  A
C1093      C1098   1.412       .  A
C1094      C1095   1.400       .  A
C1094      H1103   1.084       .  S
C1095      C1096   1.408       .  A
C1095      S1099   1.804       .  S
C1096      C1097   1.403       .  A
C1097      C1098   1.399       .  A
C1097      H1104   1.084       .  S
C1098      S1100   1.804       .  S
S1099      H1102   1.406       .  S
S1100      H1101   1.406       .  S
C1105      C1106   1.417       .  A
C1105      C1110   1.410       .  A
C1106      C1107   1.418       .  A
C1106      H1115   1.083       .  S
C1107      C1108   1.418       .  A
C1107      S1111   1.799       .  S
C1108      C1109   1.423       .  A
C1109      C1110   1.414       .  A
C1109      H1116   1.083       .  S
C1110      S1112   1.802       .  S
S1111      H1114   1.407   1_655  S
S1112      H1113   1.404       .  S
C1117      C1118   1.413       .  A
C1117      C1122   1.413       .  A
C1118      C1119   1.413       .  A
C1118      H1127   1.081       .  S
C1119      C1120   1.414       .  A
C1119      S1123   1.802       .  S
C1120      C1121   1.413       .  A
C1121      C1122   1.413       .  A
C1121      H1128   1.079       .  S
C1122      S1124   1.802       .  S
S1123      H1126   1.406       .  S
S1124      H1125   1.407       .  S
C1129      C1130   1.393       .  A
C1129      C1134   1.420       .  A
C1130      C1131   1.395       .  A
C1130      H1139   1.083       .  S
C1131      C1132   1.421       .  A
C1131      S1135   1.804       .  S
C1132      C1133   1.395       .  A
C1133      C1134   1.396       .  A
C1133      H1140   1.083       .  S
C1134      S1136   1.805       .  S
S1135      H1138   1.407       .  S
S1136      H2769   1.407       .  S
H1137      S2768   1.407       .  S
C1141      C1142   1.424       .  A
C1141      C1146   1.417       .  A
C1142      C1143   1.419       .  A
C1142      H1151   1.083       .  S
C1143      C1144   1.413       .  A
C1143      S1147   1.801       .  S
C1144      C1145   1.418       .  A
C1145      C1146   1.413       .  A
C1145      H1152   1.084       .  S
C1146      S1148   1.800       .  S
S1147      H1150   1.406   1_455  S
S1148      H1149   1.408       .  S
C1153      C1154   1.403       .  A
C1153      C1158   1.407       .  A
C1154      C1155   1.400       .  A
C1154      H1163   1.085       .  S
C1155      C1156   1.417       .  A
C1155      S1159   1.804       .  S
C1156      C1157   1.413       .  A
C1157      C1158   1.405       .  A
C1157      H1164   1.083       .  S
C1158      S1160   1.803       .  S
S1159      H1162   1.407       .  S
S1160      H1161   1.405       .  S
C1165      C1166   1.389       .  A
C1165      C1170   1.399       .  A
C1166      C1167   1.395   1_455  A
C1166      H1175   1.085       .  S
C1167      C1168   1.434       .  A
C1167      S1171   1.789       .  S
C1168      C1169   1.408       .  A
C1169      C1170   1.394   1_655  A
C1169      H1176   1.079       .  S
C1170      S1172   1.790       .  S
S1171      H1174   1.391   1_655  S
S1172      H1173   1.407       .  S
C1177      C1178   1.393       .  A
C1177      C1182   1.399       .  A
C1178      C1179   1.397       .  A
C1178      H1187   1.083       .  S
C1179      C1180   1.424       .  A
C1179      S1183   1.801       .  S
C1180      C1181   1.406       .  A
C1181      C1182   1.394       .  A
C1181      H1188   1.074       .  S
C1182      S1184   1.797       .  S
S1183      H1186   1.406       .  S
S1184      H1185   1.408       .  S
C1189      C1190   1.402       .  A
C1189      C1194   1.412       .  A
C1190      C1191   1.397       .  A
C1190      H1199   1.084       .  S
C1191      C1192   1.411       .  A
C1191      S1195   1.801       .  S
C1192      C1193   1.406       .  A
C1193      C1194   1.404       .  A
C1193      H1200   1.084       .  S
C1194      S1196   1.804       .  S
S1195      H1198   1.405       .  S
S1196      H1197   1.406       .  S
C1201      C1202   1.404       .  A
C1201      C1206   1.424       .  A
C1202      C1203   1.394       .  A
C1202      H1211   1.086       .  S
C1203      C1204   1.422       .  A
C1203      S1207   1.818       .  S
C1204      C1205   1.417       .  A
C1205      C1206   1.431       .  A
C1205      H1212   1.083       .  S
C1206      S1208   1.797       .  S
S1207      H1210   1.386       .  S
S1208      H1209   1.406       .  S
C1213      C1214   1.399       .  A
C1213      C1218   1.410       .  A
C1214      C1215   1.389       .  A
C1214      H1223   1.067       .  S
C1215      C1216   1.404       .  A
C1215      S1219   1.809       .  S
C1216      C1217   1.408       .  A
C1217      C1218   1.403       .  A
C1217      H1224   1.084       .  S
C1218      S1220   1.803       .  S
S1219      H1222   1.406       .  S
S1220      H1221   1.406       .  S
C1225      C1226   1.404       .  A
C1225      C1230   1.408       .  A
C1226      C1227   1.401       .  A
C1226      H1235   1.084       .  S
C1227      C1228   1.414       .  A
C1227      S1231   1.802       .  S
C1228      C1229   1.413       .  A
C1229      C1230   1.406       .  A
C1229      H1236   1.083       .  S
C1230      S1232   1.802       .  S
S1231      H1234   1.407       .  S
S1232      H1233   1.405       .  S
C1237      C1238   1.409       .  A
C1237      C1242   1.423       .  A
C1238      C1239   1.403       .  A
C1238      H1247   1.085       .  S
C1239      C1240   1.417       .  A
C1239      S1243   1.805       .  S
C1240      C1241   1.416       .  A
C1241      C1242   1.429       .  A
C1241      H1248   1.083       .  S
C1242      S1244   1.801       .  S
S1243      H1246   1.407       .  S
S1244      H1245   1.404       .  S
C1249      C1250   1.405       .  A
C1249      C1254   1.413       .  A
C1250      C1251   1.402       .  A
C1250      H1259   1.084       .  S
C1251      C1252   1.411       .  A
C1251      S1255   1.799       .  S
C1252      C1253   1.402       .  A
C1253      C1254   1.398       .  A
C1253      H1260   1.084       .  S
C1254      S1256   1.803       .  S
S1255      H1258   1.404       .  S
S1256      H1257   1.406       .  S
C1261      C1262   1.409       .  A
C1261      C1266   1.417       .  A
C1262      C1263   1.412       .  A
C1262      H1271   1.083       .  S
C1263      C1264   1.415       .  A
C1263      S1267   1.802       .  S
C1264      C1265   1.411       .  A
C1265      C1266   1.416       .  A
C1265      H1272   1.083       .  S
C1266      S1268   1.801       .  S
S1267      H1270   1.407       .  S
S1268      H1269   1.407       .  S
C1273      C1274   1.400       .  A
C1273      C1278   1.408       .  A
C1274      C1275   1.398       .  A
C1274      H1283   1.082       .  S
C1275      C1276   1.417       .  A
C1275      S1279   1.811       .  S
C1276      C1277   1.408       .  A
C1277      C1278   1.399       .  A
C1277      H1284   1.084       .  S
C1278      S1280   1.804       .  S
S1279      H1282   1.406       .  S
S1280      H1281   1.407       .  S
C1285      C1286   1.407       .  A
C1285      C1290   1.406       .  A
C1286      C1287   1.402       .  A
C1286      H1295   1.084       .  S
C1287      C1288   1.412       .  A
C1287      S1291   1.804       .  S
C1288      C1289   1.412       .  A
C1289      C1290   1.401       .  A
C1289      H1296   1.083       .  S
C1290      S1292   1.802       .  S
S1291      H1294   1.406       .  S
S1292      H1293   1.406       .  S
C1297      C1298   1.404       .  A
C1297      C1302   1.423       .  A
C1298      C1299   1.417       .  A
C1298      H1307   1.083       .  S
C1299      C1300   1.430       .  A
C1299      S1303   1.802       .  S
C1300      C1301   1.404       .  A
C1301      C1302   1.415       .  A
C1301      H1308   1.082       .  S
C1302      S1304   1.805       .  S
S1303      H1306   1.408       .  S
S1304      H1305   1.406       .  S
C1309      C1310   1.389       .  A
C1309      C1314   1.398       .  A
C1310      C1311   1.395       .  A
C1310      H1319   1.083       .  S
C1311      C1312   1.424       .  A
C1311      S1315   1.798       .  S
C1312      C1313   1.407       .  A
C1313      C1314   1.385       .  A
C1313      H2952   1.084       .  S
C1314      S2948   1.782       .  S
S1315      H1318   1.407       .  S
S1316      C2946   1.786       .  S
S1316      H1317   1.399       .  S
H1320      C2945   1.084       .  S
C1321      C1322   1.409       .  A
C1321      C1326   1.419       .  A
C1322      C1323   1.394       .  A
C1322      H1331   1.083       .  S
C1323      C1324   1.410       .  A
C1323      S1327   1.805   1_545  S
C1324      C1325   1.406       .  A
C1325      C1326   1.410       .  A
C1325      H1332   1.083       .  S
C1326      S1328   1.808       .  S
S1327      H1330   1.407       .  S
S1328      H1329   1.407       .  S
C1333      C1334   1.408       .  A
C1333      C1338   1.418       .  A
C1334      C1335   1.403       .  A
C1334      H1343   1.084       .  S
C1335      C1336   1.413       .  A
C1335      S1339   1.800       .  S
C1336      C1337   1.402       .  A
C1337      C1338   1.392       .  A
C1337      H1344   1.085       .  S
C1338      S1340   1.803       .  S
S1339      H1342   1.407       .  S
S1340      H1341   1.407       .  S
C1345      C1346   1.392       .  A
C1345      C1350   1.397       .  A
C1346      C1347   1.394       .  A
C1346      H1355   1.084       .  S
C1347      C1348   1.422       .  A
C1347      S1351   1.792       .  S
C1348      C1349   1.409       .  A
C1349      C1350   1.391       .  A
C1349      H1356   1.079       .  S
C1350      S1352   1.793       .  S
S1351      H1354   1.407       .  S
S1352      H1353   1.408       .  S
C1357      C1358   1.408       .  A
C1357      C1362   1.409       .  A
C1358      C1359   1.401       .  A
C1358      H1367   1.084       .  S
C1359      C1360   1.406       .  A
C1359      S1363   1.803       .  S
C1360      C1361   1.410       .  A
C1361      C1362   1.405       .  A
C1361      H1368   1.084       .  S
C1362      S1364   1.805       .  S
S1363      H1366   1.406       .  S
S1364      H1365   1.404       .  S
C1369      C1370   1.419       .  A
C1369      C1374   1.408       .  A
C1370      C1371   1.430       .  A
C1370      H1379   1.083       .  S
C1371      C1372   1.421       .  A
C1371      S1375   1.796       .  S
C1372      C1373   1.426       .  A
C1373      C1374   1.405       .  A
C1373      H1380   1.082       .  S
C1374      S1376   1.807       .  S
S1375      H1378   1.407       .  S
S1376      H1377   1.405       .  S
C1381      C1382   1.410       .  A
C1381      C1386   1.416       .  A
C1382      C1383   1.413       .  A
C1382      H1391   1.083       .  S
C1383      C1384   1.415       .  A
C1383      S1387   1.802       .  S
C1384      C1385   1.409       .  A
C1385      C1386   1.412       .  A
C1385      H1392   1.084       .  S
C1386      S1388   1.802       .  S
S1387      H1390   1.407       .  S
S1388      H1389   1.407       .  S
C1393      C1394   1.397       .  A
C1393      C1398   1.410       .  A
C1394      C1395   1.391       .  A
C1394      H1403   1.080       .  S
C1395      C1396   1.413       .  A
C1395      S1399   1.807       .  S
C1396      C1397   1.406       .  A
C1397      C1398   1.401       .  A
C1397      H1404   1.084       .  S
C1398      S1400   1.803       .  S
S1399      H1402   1.406       .  S
S1400      H1401   1.406       .  S
C1405      C1406   1.402       .  A
C1405      C1410   1.406       .  A
C1406      C1407   1.397       .  A
C1406      H1415   1.085       .  S
C1407      C1408   1.418       .  A
C1407      S1411   1.802       .  S
C1408      C1409   1.415       .  A
C1409      C1410   1.404       .  A
C1409      H1416   1.083       .  S
C1410      S1412   1.803       .  S
S1411      H1414   1.408       .  S
S1412      H1413   1.406       .  S
C1417      C1418   1.419       .  A
C1417      C1422   1.422       .  A
C1418      C1419   1.420       .  A
C1418      H1427   1.083       .  S
C1419      C1420   1.420       .  A
C1419      S1423   1.798       .  S
C1420      C1421   1.417       .  A
C1421      C1422   1.421       .  A
C1421      H1428   1.083       .  S
C1422      S1424   1.798       .  S
S1423      H1426   1.407       .  S
S1424      H1425   1.407       .  S
C1429      C1430   1.412       .  A
C1429      C1434   1.414       .  A
C1430      C1431   1.412       .  A
C1430      H1439   1.081       .  S
C1431      C1432   1.413       .  A
C1431      S1435   1.802       .  S
C1432      C1433   1.408       .  A
C1433      C1434   1.410       .  A
C1433      H1440   1.084       .  S
C1434      S1436   1.802       .  S
S1435      H1438   1.406       .  S
S1436      H1437   1.407       .  S
C1441      C1442   1.408       .  A
C1441      C1446   1.403       .  A
C1442      C1443   1.398       .  A
C1442      H1451   1.079       .  S
C1443      C1444   1.405       .  A
C1443      S1447   1.806       .  S
C1444      C1445   1.410       .  A
C1445      C1446   1.394       .  A
C1445      H1452   1.081       .  S
C1446      S1448   1.804       .  S
S1447      H1450   1.407       .  S
S1448      H1449   1.407       .  S
C1453      C1454   1.389       .  A
C1453      C1458   1.400   1_554  A
C1454      C1455   1.390       .  A
C1454      H1463   1.085       .  S
C1455      C1456   1.417       .  A
C1455      S1459   1.791       .  S
C1456      C1457   1.406   1_554  A
C1457      C1458   1.395       .  A
C1457      H3096   1.079       .  S
C1458      S3092   1.796       .  S
S1459      H1462   1.404       .  S
S1460      C3090   1.797       .  S
S1460      H1461   1.407       .  S
H1464      C3089   1.079       .  S
C1465      C1470   1.420       .  A
C1465      C3098   1.409       .  A
C1466      C1467   1.402       .  A
C1466      C3097   1.409   1_554  A
C1466      H1475   1.084   1_545  S
C1467      C1468   1.412       .  A
C1467      S1471   1.798       .  S
C1468      C3101   1.401   1_554  A
C1469      C1470   1.394       .  A
C1469      C3100   1.402       .  A
C1469      H1476   1.084       .  S
C1470      S1472   1.803       .  S
S1471      H1474   1.407       .  S
S1472      H1473   1.407       .  S
C1477      C1478   1.405       .  A
C1477      C3114   1.414       .  A
C1478      C1479   1.403       .  A
C1478      H1487   1.084       .  S
C1479      C3112   1.417       .  A
C1479      S1483   1.802       .  S
C1480      C1481   1.407       .  A
C1480      C3111   1.417   1_554  A
C1481      C1482   1.396       .  A
C1481      H1488   1.084       .  S
C1482      C3109   1.413   1_554  A
C1482      S1484   1.805       .  S
S1483      H3118   1.407       .  S
S1484      H1485   1.408       .  S
H1486      S3115   1.407       .  S
C1489      C1490   1.390       .  A
C1489      C1494   1.400       .  A
C1490      C1491   1.392       .  A
C1490      H1499   1.085       .  S
C1491      C1492   1.421       .  A
C1491      S1495   1.791       .  S
C1492      C1493   1.407       .  A
C1493      C1494   1.391       .  A
C1493      H1500   1.080   1_655  S
C1494      S1496   1.794       .  S
S1495      H1498   1.406   1_655  S
S1496      H1497   1.408       .  S
C1501      C1502   1.402       .  A
C1501      C1506   1.414       .  A
C1502      C1503   1.394       .  A
C1502      H1511   1.084       .  S
C1503      C1504   1.410       .  A
C1503      S1507   1.803       .  S
C1504      C1505   1.402       .  A
C1505      C1506   1.401       .  A
C1505      H1512   1.084       .  S
C1506      S1508   1.803       .  S
S1507      H1510   1.406       .  S
S1508      H1509   1.407       .  S
C1513      C1514   1.409       .  A
C1513      C1518   1.407       .  A
C1514      C1515   1.403       .  A
C1514      H1523   1.084       .  S
C1515      C1516   1.407       .  A
C1515      S1519   1.805       .  S
C1516      C1517   1.408       .  A
C1517      C1518   1.402       .  A
C1517      H1524   1.084       .  S
C1518      S1520   1.804       .  S
S1519      H1522   1.405       .  S
S1520      H1521   1.406       .  S
C1525      C1526   1.420       .  A
C1525      C1530   1.412       .  A
C1526      C1527   1.418       .  A
C1526      H1535   1.084       .  S
C1527      C1528   1.414       .  A
C1527      S1531   1.798       .  S
C1528      C1529   1.421       .  A
C1529      C1530   1.417       .  A
C1529      H1536   1.084       .  S
C1530      S1532   1.798       .  S
S1531      H1534   1.406       .  S
S1532      H1533   1.406       .  S
C1537      C1538   1.412       .  A
C1537      C1542   1.415       .  A
C1538      C1539   1.415       .  A
C1538      H1547   1.082       .  S
C1539      C1540   1.415       .  A
C1539      S1543   1.802       .  S
C1540      C1541   1.408       .  A
C1541      C1542   1.411       .  A
C1541      H1548   1.084       .  S
C1542      S1544   1.802       .  S
S1543      H1546   1.407       .  S
S1544      H1545   1.407       .  S
C1549      C1550   1.399       .  A
C1549      C1554   1.410       .  A
C1550      C1551   1.393       .  A
C1550      H1559   1.079       .  S
C1551      C1552   1.412       .  A
C1551      S1555   1.809       .  S
C1552      C1553   1.406       .  A
C1553      C1554   1.400       .  A
C1553      H1560   1.084       .  S
C1554      S1556   1.803       .  S
S1555      H1558   1.406       .  S
S1556      H1557   1.406       .  S
C1561      C1562   1.404       .  A
C1561      C1566   1.411       .  A
C1562      C1563   1.402       .  A
C1562      H1571   1.084       .  S
C1563      C1564   1.411       .  A
C1563      S1567   1.797       .  S
C1564      C1565   1.402       .  A
C1565      C1566   1.395       .  A
C1565      H1572   1.084       .  S
C1566      S1568   1.803       .  S
S1567      H1570   1.405       .  S
S1568      H1569   1.405       .  S
C1573      C1574   1.413       .  A
C1573      C1578   1.417       .  A
C1574      C1575   1.402       .  A
C1574      H1583   1.083       .  S
C1575      C1576   1.407       .  A
C1575      S1579   1.803       .  S
C1576      C1577   1.402       .  A
C1577      C1578   1.397       .  A
C1577      H1584   1.085       .  S
C1578      S1580   1.802       .  S
S1579      H1582   1.406       .  S
S1580      H1581   1.408       .  S
C1585      C1586   1.407       .  A
C1585      C1590   1.428       .  A
C1586      C1587   1.421       .  A
C1586      H1595   1.084       .  S
C1587      C1588   1.431       .  A
C1587      S1591   1.798   1_554  S
C1588      C1589   1.410       .  A
C1589      C1590   1.422       .  A
C1589      H1596   1.083       .  S
C1590      S1592   1.802       .  S
S1591      H3226   1.408       .  S
S1592      H1593   1.407       .  S
H1594      S3223   1.408       .  S
C1597      C1598   1.399       .  A
C1597      C1602   1.409       .  A
C1598      C1599   1.393       .  A
C1598      H1607   1.079       .  S
C1599      C1600   1.412       .  A
C1599      S1603   1.808       .  S
C1600      C1601   1.407       .  A
C1601      C1602   1.400       .  A
C1601      H1608   1.084       .  S
C1602      S1604   1.803       .  S
S1603      H3238   1.407       .  S
S1604      H1605   1.406       .  S
H1606      S3235   1.407       .  S
C1609      C1610   1.411       .  A
C1609      C1614   1.414       .  A
C1610      C1611   1.412       .  A
C1610      H1619   1.082       .  S
C1611      C1612   1.415       .  A
C1611      S1615   1.803       .  S
C1612      C1613   1.409       .  A
C1613      C1614   1.413       .  A
C1613      H1620   1.084       .  S
C1614      S1616   1.801       .  S
S1615      H1618   1.407       .  S
S1616      H1617   1.407       .  S
C1621      C1622   1.392       .  A
C1621      C1626   1.400       .  A
C1622      C1623   1.393   1_455  A
C1622      H1631   1.085       .  S
C1623      C1624   1.418       .  A
C1623      S1627   1.794       .  S
C1624      C1625   1.410       .  A
C1625      C1626   1.392   1_655  A
C1625      H1632   1.081       .  S
C1626      S1628   1.796       .  S
S1627      H1630   1.407   1_655  S
S1628      H1629   1.407       .  S
Zr1633     O1634   2.438       .  S
Zr1633     O1635   2.429       .  S
Zr1633     O1636   2.436       .  S
Zr1633     O1639   2.532       .  S
Zr1633     O1641   2.422       .  S
Zr1633     O1642   2.380       .  S
Zr1633     O1643   2.432       .  S
Zr1633     O1644   2.389       .  S
O1634      H1690   0.990       .  S
O1634      H1698   0.990       .  S
O1635      C1655   1.278       .  A
O1636      C1657   1.286       .  A
O1637     Zr1647   2.440       .  S
O1637      C1656   1.286       .  A
O1638     Zr1646   2.434       .  S
O1638      C1657   1.286       .  A
O1639      C1656   1.305       .  A
O1640     Zr1648   2.411       .  S
O1640      C1655   1.269       .  A
O1641     Zr1646   2.406       .  S
O1641     Zr1648   2.360       .  S
O1642     Zr1647   2.365       .  S
O1642     Zr1648   2.382       .  S
O1642      H1677   0.961       .  S
O1643     Zr1646   2.434       .  S
O1643     Zr1663   2.396       .  S
O1643      H1680   0.965       .  S
O1644     Zr1647   2.396       .  S
O1644     Zr1663   2.405       .  S
Zr1645     O1670   2.439       .  S
Zr1645     O1664   2.447       .  S
Zr1645     O1672   2.367       .  S
Zr1645     O1660   2.428       .  S
Zr1645     O1651   2.406       .  S
Zr1645     O1652   2.411       .  S
Zr1645     O1653   2.368       .  S
Zr1645     O1654   2.394       .  S
Zr1646     O1665   2.433       .  S
Zr1646     O1658   2.435       .  S
Zr1646     O1659   2.506       .  S
Zr1646     O1652   2.401       .  S
Zr1646     O1653   2.398       .  S
Zr1647     O1649   2.435       .  S
Zr1647     O1671   2.439       .  S
Zr1647     O1673   2.447       .  S
Zr1647     O1651   2.366       .  S
Zr1647     O1654   2.371       .  S
Zr1648     O1674   2.433       .  S
Zr1648     O1675   2.436       .  S
Zr1648     O1650   2.435       .  S
Zr1648     O1651   2.376       .  S
Zr1648     O1652   2.373       .  S
O1649      H1686   0.990       .  S
O1650      H1681   0.990       .  S
O1650      H1695   0.990       .  S
O1652      H1678   0.962       .  S
O1653     Zr1663   2.392       .  S
O1654     Zr1663   2.385       .  S
O1654      H1679   0.964       .  S
C1655      C3229   1.463       .  S
C1656      C3217   1.532       .  S
C1657      C3193   1.469       .  S
O1658      H1694   0.990       .  S
O1659      C1661   1.292       .  A
O1660      C1661   1.272       .  A
C1661      C3241   1.502       .  S
O1662     Zr1663   2.440       .  S
O1662      H1691   0.990       .  S
Zr1663     O1666   2.436       .  S
Zr1663     O1667   2.437       .  S
Zr1663     O1668   2.430       .  S
O1664      C1669   1.285       .  A
O1665      H1682   0.990       .  S
O1665      H1697   0.990       .  S
O1666      H1683   0.990       .  S
O1667      H1687   0.990       .  S
O1667      H1696   0.990       .  S
O1668      C1669   1.283       .  A
C1669      C3205   1.492       .  S
O1670      H1689   0.989       .  S
O1670      H1693   0.989       .  S
O1671      H1685   0.990       .  S
O1671      H1692   0.990       .  S
O1672      C1676   1.268       .  A
O1673      C1676   1.296       .  A
O1674      H1684   0.990       .  S
O1675      H1688   0.990       .  S
C1676      C3253   1.458       .  S
Zr1699     O1700   2.439       .  S
Zr1699     O1701   2.430       .  S
Zr1699     O1702   2.429       .  S
Zr1699     O1705   2.558       .  S
Zr1699     O1707   2.428       .  S
Zr1699     O1708   2.372       .  S
Zr1699     O1709   2.438       .  S
Zr1699     O1710   2.364       .  S
O1700      H1756   0.990       .  S
O1700      H1764   0.990       .  S
O1701      C1721   1.278       .  A
O1702      C1723   1.285       .  A
O1703     Zr1713   2.385       .  S
O1703      C1722   1.276       .  A
O1704     Zr1712   2.438       .  S
O1704      C1723   1.286       .  A
O1705      C1722   1.310       .  A
O1706     Zr1714   2.413       .  S
O1706      C1721   1.269       .  A
O1707     Zr1712   2.409       .  S
O1707     Zr1714   2.363       .  S
O1708     Zr1713   2.360       .  S
O1708     Zr1714   2.389       .  S
O1708      H1743   0.961       .  S
O1709     Zr1712   2.430       .  S
O1709     Zr1729   2.382       .  S
O1709      H1746   0.965       .  S
O1710     Zr1713   2.385       .  S
O1710     Zr1729   2.402       .  S
Zr1711     O1736   2.434       .  S
Zr1711     O1730   2.472       .  S
Zr1711     O1738   2.390       .  S
Zr1711     O1726   2.426       .  S
Zr1711     O1717   2.411       .  S
Zr1711     O1718   2.408       .  S
Zr1711     O1719   2.383       .  S
Zr1711     O1720   2.392       .  S
Zr1712     O1731   2.433       .  S
Zr1712     O1724   2.434       .  S
Zr1712     O1725   2.510       .  S
Zr1712     O1718   2.396       .  S
Zr1712     O1719   2.391       .  S
Zr1713     O1715   2.448       .  S
Zr1713     O1737   2.453       .  S
Zr1713     O1739   2.411       .  S
Zr1713     O1717   2.389       .  S
Zr1713     O1720   2.372       .  S
Zr1714     O1740   2.432       .  S
Zr1714     O1741   2.436       .  S
Zr1714     O1716   2.436       .  S
Zr1714     O1717   2.387       .  S
Zr1714     O1718   2.374       .  S
O1715      H1752   0.990       .  S
O1716      H1747   0.990       .  S
O1716      H1761   0.990       .  S
O1718      H1744   0.964       .  S
O1719     Zr1729   2.393       .  S
O1720     Zr1729   2.381       .  S
O1720      H1745   0.963       .  S
C1721      C3181   1.465       .  S
C1722      C3157   1.521       .  S
C1723      C3136   1.464       .  S
O1724      H1760   0.990       .  S
O1725      C1727   1.297       .  A
O1726      C1727   1.280       .  A
C1727      C3172   1.499       .  S
O1728     Zr1729   2.440       .  S
O1728      H1757   0.990       .  S
Zr1729     O1732   2.436       .  S
Zr1729     O1733   2.440       .  S
Zr1729     O1734   2.409       .  S
O1730      C1735   1.291       .  A
O1731      H1748   0.990       .  S
O1731      H1763   0.990       .  S
O1732      H1749   0.990       .  S
O1733      H1753   0.990       .  S
O1733      H1762   0.990       .  S
O1734      C1735   1.278       .  A
C1735      C3148   1.474       .  S
O1736      H1755   0.990       .  S
O1736      H1759   0.988       .  S
O1737      H1751   0.990       .  S
O1737      H1758   0.990       .  S
O1738      C1742   1.269       .  A
O1739      C1742   1.270       .  A
O1740      H1750   0.990       .  S
O1741      H1754   0.990       .  S
C1742      C3256   1.464       .  S
Zr1765     O1766   2.439   1_456  S
Zr1765     O1768   2.429       .  S
Zr1765     O1773   2.427       .  S
Zr1765     O1774   2.368       .  S
Zr1765     O1775   2.441       .  S
Zr1765     O1776   2.367   1_455  S
O1766      H1830   0.990       .  S
O1767      C1787   1.277       .  A
O1768      C1789   1.286       .  A
O1769      C1788   1.276       .  A
O1770     Zr1778   2.445       .  S
O1770      C1789   1.289       .  A
O1771      C1788   1.310       .  A
O1772      C1787   1.269       .  A
O1773     Zr1778   2.409       .  S
O1773     Zr1780   2.365       .  S
O1774     Zr1779   2.351       .  S
O1774     Zr1780   2.382       .  S
O1774      H1809   0.960   1_556  S
O1775     Zr1778   2.430       .  S
O1775     Zr1795   2.389   1_455  S
O1775      H1812   0.966       .  S
O1776     Zr1779   2.387   1_655  S
O1776     Zr1795   2.409       .  S
Zr1777     O1802   2.436       .  S
Zr1777     O1796   2.455       .  S
Zr1777     O1804   2.389       .  S
Zr1777     O1792   2.417       .  S
Zr1777     O1783   2.408       .  S
Zr1777     O1784   2.404       .  S
Zr1777     O1785   2.385       .  S
Zr1777     O1786   2.386       .  S
Zr1778     O1797   2.434       .  S
Zr1778     O1790   2.434       .  S
Zr1778     O1791   2.514       .  S
Zr1778     O1784   2.397       .  S
Zr1778     O1785   2.389       .  S
Zr1779     O1781   2.448   1_455  S
Zr1779     O1803   2.456       .  S
Zr1779     O1805   2.408       .  S
Zr1779     O1783   2.391       .  S
Zr1779     O1786   2.360       .  S
Zr1780     O1806   2.435   1_556  S
Zr1780     O1807   2.435       .  S
Zr1780     O1782   2.436       .  S
Zr1780     O1783   2.391       .  S
Zr1780     O1784   2.374       .  S
O1781      H1818   0.990       .  S
O1782      H1813   0.990       .  S
O1782      H1827   0.990       .  S
O1784      H1810   0.965       .  S
O1785     Zr1795   2.389   1_455  S
O1786     Zr1795   2.368   1_455  S
O1786      H1811   0.962   1_455  S
C1787      C3232   1.470       .  S
C1788      C3160   1.524       .  S
C1789      C3109   1.481       .  S
O1790      H1826   0.990       .  S
O1791      C1793   1.299       .  A
O1792      C1793   1.280       .  A
C1793      C3244   1.498       .  S
O1794     Zr1795   2.440       .  S
O1794      H1823   0.990       .  S
Zr1795     O1798   2.435       .  S
Zr1795     O1799   2.440       .  S
Zr1795     O1800   2.430       .  S
O1796      C1801   1.289   1_455  A
O1797      H1814   0.990       .  S
O1797      H1829   0.990       .  S
O1798      H1815   0.990       .  S
O1799      H1819   0.990       .  S
O1799      H1828   0.990       .  S
O1800      C1801   1.283       .  A
C1801      C3145   1.476       .  S
O1802      H1821   0.990       .  S
O1802      H1825   0.989       .  S
O1803      H1817   0.990       .  S
O1803      H1824   0.989   1_556  S
O1804      C1808   1.272       .  A
O1805      C1808   1.269       .  A
O1806      H1816   0.990       .  S
O1807      H1820   0.990       .  S
C1808      C3124   1.461   1_455  S
Zr1831     O1832   2.438   1_656  S
Zr1831     O1834   2.445       .  S
Zr1831     O1839   2.421       .  S
Zr1831     O1840   2.383       .  S
Zr1831     O1841   2.432   1_655  S
Zr1831     O1842   2.391   1_655  S
O1832      H1896   0.990   1_554  S
O1833      C1853   1.278       .  A
O1834      C1855   1.289       .  A
O1835     Zr1845   2.446       .  S
O1836     Zr1844   2.428       .  S
O1836      C1855   1.283       .  A
O1837      C1854   1.305       .  A
O1838     Zr1846   2.411       .  S
O1839     Zr1844   2.405       .  S
O1839     Zr1846   2.357       .  S
O1840     Zr1845   2.361   1_655  S
O1840     Zr1846   2.375       .  S
O1840      H1875   0.958       .  S
O1841     Zr1844   2.435   1_455  S
O1841     Zr1861   2.402       .  S
O1841      H1878   0.966       .  S
O1842     Zr1845   2.401       .  S
O1842     Zr1861   2.403       .  S
Zr1843     O1868   2.435       .  S
Zr1843     O1862   2.443   1_655  S
Zr1843     O1870   2.359       .  S
Zr1843     O1858   2.422       .  S
Zr1843     O1849   2.406       .  S
Zr1843     O1850   2.413       .  S
Zr1843     O1851   2.364       .  S
Zr1843     O1852   2.394   1_655  S
Zr1844     O1863   2.433       .  S
Zr1844     O1856   2.434       .  S
Zr1844     O1857   2.504       .  S
Zr1844     O1850   2.399       .  S
Zr1844     O1851   2.397       .  S
Zr1845     O1847   2.438       .  S
Zr1845     O1869   2.438   1_455  S
Zr1845     O1871   2.471   1_455  S
Zr1845     O1849   2.357   1_455  S
Zr1845     O1852   2.366       .  S
Zr1846     O1872   2.436       .  S
Zr1846     O1873   2.435       .  S
Zr1846     O1848   2.435       .  S
Zr1846     O1849   2.374       .  S
Zr1846     O1850   2.379       .  S
O1847      H1884   0.990       .  S
O1848      H1879   0.990       .  S
O1848      H1893   0.990       .  S
O1850      H1876   0.963       .  S
O1851     Zr1861   2.392   1_655  S
O1852     Zr1861   2.387       .  S
O1852      H1877   0.963       .  S
C1853      C3184   1.470       .  S
C1854      C3220   1.538       .  S
C1855      C3097   1.493   1_565  S
O1856      H1892   0.990       .  S
O1857      C1859   1.290       .  A
O1858      C1859   1.271       .  A
C1859      C3169   1.503       .  S
O1860     Zr1861   2.439       .  S
O1860      H1889   0.990       .  S
Zr1861     O1864   2.437       .  S
Zr1861     O1865   2.437       .  S
Zr1861     O1866   2.434       .  S
O1862      C1867   1.285       .  A
O1863      H1880   0.990       .  S
O1863      H1895   0.990       .  S
O1864      H1881   0.990       .  S
O1865      H1885   0.990       .  S
O1865      H1894   0.990       .  S
O1866      C1867   1.282       .  A
C1867      C3208   1.470       .  S
O1868      H1887   0.989       .  S
O1868      H1891   0.990       .  S
O1869      H1883   0.989   1_556  S
O1869      H1890   0.990       .  S
O1870      C1874   1.266       .  A
O1871      C1874   1.300       .  A
O1872      H1882   0.990       .  S
O1873      H1886   0.990       .  S
C1874      C3121   1.459       .  S
Zr1897     O1898   2.440       .  S
Zr1897     O1899   2.447       .  S
Zr1897     O1900   2.422       .  S
Zr1897     O1903   2.522       .  S
Zr1897     O1905   2.411       .  S
Zr1897     O1906   2.378       .  S
Zr1897     O1907   2.434       .  S
Zr1897     O1908   2.389       .  S
O1898      H1954   0.990       .  S
O1898      H1962   0.990       .  S
O1899      C1919   1.283       .  A
O1900      C1921   1.283       .  A
O1901     Zr1911   2.445       .  S
O1901      C1920   1.287       .  A
O1902     Zr1910   2.435       .  S
O1902      C1921   1.285       .  A
O1903      C1920   1.302       .  A
O1904     Zr1912   2.392       .  S
O1904      C1919   1.268       .  A
O1905     Zr1910   2.400       .  S
O1905     Zr1912   2.365       .  S
O1906     Zr1911   2.376       .  S
O1906     Zr1912   2.384       .  S
O1906      H1941   0.965       .  S
O1907     Zr1910   2.433       .  S
O1907     Zr1927   2.407       .  S
O1907      H1944   0.966       .  S
O1908     Zr1911   2.393       .  S
O1908     Zr1927   2.407       .  S
Zr1909     O1934   2.441       .  S
Zr1909     O1936   2.363       .  S
Zr1909     O1915   2.409       .  S
Zr1909     O1916   2.401       .  S
Zr1909     O1917   2.366       .  S
Zr1909     O1918   2.397       .  S
Zr1910     O1929   2.433       .  S
Zr1910     O1922   2.434       .  S
Zr1910     O1923   2.501       .  S
Zr1910     O1916   2.401       .  S
Zr1910     O1917   2.398       .  S
Zr1911     O1913   2.436       .  S
Zr1911     O1935   2.438       .  S
Zr1911     O1937   2.454       .  S
Zr1911     O1915   2.372       .  S
Zr1911     O1918   2.371       .  S
Zr1912     O1938   2.443       .  S
Zr1912     O1939   2.437       .  S
Zr1912     O1914   2.438       .  S
Zr1912     O1915   2.366       .  S
Zr1912     O1916   2.369       .  S
O1913      H1950   0.990       .  S
O1914      H1945   0.990       .  S
O1914      H1959   0.990       .  S
O1916      H1942   0.961       .  S
O1917     Zr1927   2.388       .  S
O1918     Zr1927   2.379       .  S
O1918      H1943   0.963       .  S
C1919      C3073   1.469       .  S
C1920      C3052   1.534       .  S
C1921      C3133   1.469       .  S
O1922      H1958   0.990       .  S
O1924      C1925   1.273       .  A
C1925      C3061   1.501       .  S
O1926     Zr1927   2.439       .  S
O1926      H1955   0.990       .  S
Zr1927     O1930   2.436       .  S
Zr1927     O1931   2.437       .  S
Zr1927     O1932   2.448       .  S
O1928      C1933   1.284       .  A
O1929      H1946   0.990       .  S
O1929      H1961   0.990       .  S
O1930      H1947   0.990       .  S
O1931      H1951   0.990       .  S
O1931      H1960   0.990       .  S
C1933      C3037   1.474       .  S
O1934      H1953   0.988       .  S
O1934      H1957   0.990       .  S
O1935      H1949   0.990       .  S
O1935      H1956   0.990       .  S
O1936      C1940   1.266       .  A
O1937      C1940   1.297       .  A
O1938      H1948   0.990       .  S
O1939      H1952   0.990       .  S
C1940      C3085   1.456       .  S
Zr1963     O1964   2.439       .  S
Zr1963     O1965   2.423       .  S
Zr1963     O1966   2.429       .  S
Zr1963     O1969   2.582       .  S
Zr1963     O1971   2.433       .  S
Zr1963     O1972   2.370       .  S
Zr1963     O1973   2.442       .  S
Zr1963     O1974   2.360       .  S
O1964      H2020   0.990       .  S
O1964      H2028   0.990       .  S
O1965      C1985   1.277       .  A
O1966      C1987   1.286       .  A
O1967     Zr1977   2.359       .  S
O1967      C1986   1.273       .  A
O1968     Zr1976   2.445       .  S
O1968      C1987   1.288       .  A
O1969      C1986   1.314       .  A
O1970     Zr1978   2.415       .  S
O1970      C1985   1.269       .  A
O1971     Zr1976   2.409       .  S
O1971     Zr1978   2.361       .  S
O1972     Zr1977   2.356       .  S
O1972     Zr1978   2.382       .  S
O1972      H2007   0.962       .  S
O1973     Zr1976   2.434       .  S
O1973     Zr1993   2.382       .  S
O1973      H2010   0.966       .  S
O1974     Zr1977   2.386       .  S
O1974     Zr1993   2.404       .  S
Zr1975     O2000   2.436       .  S
Zr1975     O2002   2.387       .  S
Zr1975     O1981   2.412       .  S
Zr1975     O1982   2.413       .  S
Zr1975     O1983   2.384       .  S
Zr1975     O1984   2.383       .  S
Zr1976     O1995   2.433       .  S
Zr1976     O1988   2.433       .  S
Zr1976     O1989   2.518       .  S
Zr1976     O1982   2.399       .  S
Zr1976     O1983   2.390       .  S
Zr1977     O1979   2.451       .  S
Zr1977     O2001   2.456       .  S
Zr1977     O2003   2.414       .  S
Zr1977     O1981   2.378       .  S
Zr1977     O1984   2.359       .  S
Zr1978     O2004   2.434       .  S
Zr1978     O2005   2.436       .  S
Zr1978     O1980   2.436       .  S
Zr1978     O1981   2.391       .  S
Zr1978     O1982   2.374       .  S
O1979      H2016   0.990       .  S
O1980      H2011   0.991       .  S
O1980      H2025   0.990       .  S
O1982      H2008   0.964       .  S
O1983     Zr1993   2.389       .  S
O1984     Zr1993   2.378       .  S
O1984      H2009   0.963       .  S
C1985      C3025   1.463       .  S
C1986      C3004   1.542       .  S
C1987      C3196   1.471       .  S
O1988      H2024   0.990       .  S
O1990      C1991   1.277       .  A
C1991      C3016   1.502       .  S
O1992     Zr1993   2.440       .  S
O1992      H2021   0.990       .  S
Zr1993     O1996   2.436       .  S
Zr1993     O1997   2.440       .  S
Zr1993     O1998   2.414       .  S
O1994      C1999   1.292       .  A
O1995      H2012   0.990       .  S
O1995      H2027   0.990       .  S
O1996      H2013   0.990       .  S
O1997      H2017   0.990       .  S
O1997      H2026   0.990       .  S
C1999      C2989   1.477       .  S
O2000      H2019   0.990       .  S
O2000      H2023   0.987       .  S
O2001      H2015   0.989       .  S
O2001      H2022   0.990       .  S
O2002      C2006   1.271       .  A
O2003      C2006   1.270       .  A
O2004      H2014   0.990       .  S
O2005      H2018   0.990       .  S
C2006      C3088   1.459       .  S
Zr2029     O2030   2.438       .  S
Zr2029     O2031   2.431       .  S
Zr2029     O2032   2.440       .  S
Zr2029     O2035   2.526       .  S
Zr2029     O2037   2.419       .  S
Zr2029     O2038   2.377       .  S
Zr2029     O2039   2.432       .  S
Zr2029     O2040   2.393       .  S
O2030      H2086   0.990       .  S
O2030      H2094   0.990       .  S
O2031      C2051   1.279       .  A
O2032      C2053   1.288       .  A
O2033     Zr2043   2.443       .  S
O2033      C2052   1.287       .  A
O2034     Zr2042   2.434       .  S
O2034      C2053   1.285       .  A
O2035      C2052   1.303       .  A
O2036     Zr2044   2.410       .  S
O2036      C2051   1.272       .  A
O2037     Zr2042   2.406       .  S
O2037     Zr2044   2.356       .  S
O2038     Zr2043   2.362       .  S
O2038     Zr2044   2.374       .  S
O2038      H2073   0.958       .  S
O2039     Zr2042   2.434       .  S
O2039     Zr2059   2.404       .  S
O2039      H2076   0.966       .  S
O2040     Zr2043   2.397       .  S
O2040     Zr2059   2.404       .  S
Zr2041     O2066   2.433       .  S
Zr2041     O2060   2.451       .  S
Zr2041     O2068   2.370       .  S
Zr2041     O2056   2.428       .  S
Zr2041     O2047   2.399       .  S
Zr2041     O2048   2.414       .  S
Zr2041     O2049   2.365       .  S
Zr2041     O2050   2.395       .  S
Zr2042     O2061   2.435       .  S
Zr2042     O2054   2.435       .  S
Zr2042     O2055   2.506       .  S
Zr2042     O2048   2.399       .  S
Zr2042     O2049   2.397       .  S
Zr2043     O2045   2.436       .  S
Zr2043     O2067   2.438       .  S
Zr2043     O2069   2.458       .  S
Zr2043     O2047   2.354       .  S
Zr2043     O2050   2.373       .  S
Zr2044     O2070   2.436       .  S
Zr2044     O2071   2.435       .  S
Zr2044     O2046   2.435       .  S
Zr2044     O2047   2.370       .  S
Zr2044     O2048   2.379       .  S
O2045      H2082   0.990       .  S
O2046      H2077   0.990       .  S
O2046      H2091   0.990       .  S
O2048      H2074   0.963       .  S
O2049     Zr2059   2.393       .  S
O2050     Zr2059   2.388       .  S
O2050      H2075   0.964       .  S
C2051      C3028   1.471       .  S
C2052      C3049   1.536       .  S
C2053      C2965   1.490       .  S
O2054      H2090   0.990       .  S
O2055      C2057   1.292       .  A
O2056      C2057   1.273       .  A
C2057      C3013   1.505       .  S
O2058     Zr2059   2.440       .  S
O2058      H2087   0.990       .  S
Zr2059     O2062   2.436       .  S
Zr2059     O2063   2.437       .  S
Zr2059     O2064   2.436       .  S
O2060      C2065   1.286       .  A
O2061      H2078   0.990       .  S
O2061      H2093   0.990       .  S
O2062      H2079   0.990       .  S
O2063      H2083   0.990       .  S
O2063      H2092   0.990       .  S
O2064      C2065   1.284       .  A
C2065      C3040   1.497       .  S
O2066      H2085   0.990       .  S
O2066      H2089   0.989       .  S
O2067      H2081   0.989       .  S
O2067      H2088   0.990       .  S
O2068      C2072   1.269       .  A
O2069      C2072   1.298       .  A
O2070      H2080   0.990       .  S
O2071      H2084   0.990       .  S
C2072      C2977   1.460       .  S
Zr2095     O2096   2.439       .  S
Zr2095     O2097   2.448       .  S
Zr2095     O2098   2.433       .  S
Zr2095     O2101   2.555       .  S
Zr2095     O2103   2.416       .  S
Zr2095     O2104   2.372       .  S
Zr2095     O2105   2.441       .  S
Zr2095     O2106   2.373       .  S
O2096      H2152   0.990       .  S
O2096      H2160   0.990       .  S
O2097      C2117   1.281       .  A
O2098      C2119   1.287       .  A
O2099     Zr2109   2.380       .  S
O2099      C2118   1.274       .  A
O2100     Zr2108   2.452       .  S
O2100      C2119   1.290       .  A
O2101      C2118   1.310       .  A
O2102     Zr2110   2.396       .  S
O2102      C2117   1.266       .  A
O2103     Zr2108   2.401       .  S
O2103     Zr2110   2.370       .  S
O2104     Zr2109   2.371       .  S
O2104     Zr2110   2.391       .  S
O2104      H2139   0.966       .  S
O2105     Zr2108   2.428       .  S
O2105     Zr2125   2.389       .  S
O2105      H2142   0.965       .  S
O2106     Zr2109   2.385       .  S
O2106     Zr2125   2.413       .  S
Zr2107     O2132   2.436       .  S
Zr2107     O2126   2.456       .  S
Zr2107     O2134   2.386       .  S
Zr2107     O2122   2.428       .  S
Zr2107     O2113   2.409       .  S
Zr2107     O2114   2.395       .  S
Zr2107     O2115   2.385       .  S
Zr2107     O2116   2.390       .  S
Zr2108     O2127   2.434       .  S
Zr2108     O2120   2.433       .  S
Zr2108     O2121   2.504       .  S
Zr2108     O2114   2.402       .  S
Zr2108     O2115   2.393       .  S
Zr2109     O2111   2.447       .  S
Zr2109     O2133   2.449       .  S
Zr2109     O2135   2.410       .  S
Zr2109     O2113   2.389       .  S
Zr2109     O2116   2.361       .  S
Zr2110     O2136   2.444       .  S
Zr2110     O2137   2.438       .  S
Zr2110     O2112   2.447       .  S
Zr2110     O2113   2.383       .  S
Zr2110     O2114   2.371       .  S
O2111      H2148   0.990       .  S
O2112      H2143   0.990       .  S
O2112      H2157   0.990       .  S
O2114      H2140   0.963       .  S
O2115     Zr2125   2.391       .  S
O2116     Zr2125   2.366       .  S
O2116      H2141   0.962       .  S
C2117      C3076   1.474       .  S
C2118      C3001   1.508       .  S
C2119      C2956   1.484   1_565  S
O2120      H2156   0.990       .  S
O2121      C2123   1.297       .  A
O2122      C2123   1.282       .  A
C2123      C3064   1.496       .  S
O2124     Zr2125   2.440       .  S
O2124      H2153   0.990       .  S
Zr2125     O2128   2.435       .  S
Zr2125     O2129   2.440       .  S
Zr2125     O2130   2.435       .  S
O2126      C2131   1.290       .  A
O2127      H2144   0.990       .  S
O2127      H2159   0.990       .  S
O2128      H2145   0.990       .  S
O2129      H2149   0.990       .  S
O2129      H2158   0.990       .  S
O2130      C2131   1.284       .  A
C2131      C2992   1.480       .  S
O2132      H2151   0.990       .  S
O2132      H2155   0.988       .  S
O2133      H2147   0.990       .  S
O2133      H2154   0.990       .  S
O2134      C2138   1.271       .  A
O2135      C2138   1.270       .  A
O2136      H2146   0.990       .  S
O2137      H2150   0.990       .  S
C2138      C2980   1.464       .  S
Zr2161     O2162   2.439       .  S
Zr2161     O2163   2.439       .  S
Zr2161     O2164   2.441       .  S
Zr2161     O2167   2.512       .  S
Zr2161     O2169   2.416       .  S
Zr2161     O2170   2.393       .  S
Zr2161     O2171   2.431       .  S
Zr2161     O2172   2.387       .  S
O2162      H2218   0.990       .  S
O2162      H2226   0.990       .  S
O2163      C2183   1.279       .  A
O2164      C2185   1.286       .  A
O2165     Zr2175   2.427       .  S
O2165      C2184   1.283       .  A
O2166     Zr2174   2.437       .  S
O2166      C2185   1.286       .  A
O2167      C2184   1.301       .  A
O2168     Zr2176   2.404       .  S
O2168      C2183   1.271       .  A
O2169     Zr2174   2.411       .  S
O2169     Zr2176   2.364       .  S
O2170     Zr2175   2.367       .  S
O2170     Zr2176   2.382       .  S
O2170      H2205   0.962       .  S
O2171     Zr2174   2.432       .  S
O2171     Zr2191   2.400       .  S
O2171      H2208   0.966       .  S
O2172     Zr2175   2.399       .  S
O2172     Zr2191   2.397       .  S
Zr2173     O2198   2.426   1_556  S
Zr2173     O2200   2.346   1_556  S
Zr2173     O2179   2.401       .  S
Zr2173     O2180   2.408       .  S
Zr2173     O2181   2.368       .  S
Zr2173     O2182   2.383       .  S
Zr2174     O2193   2.433       .  S
Zr2174     O2186   2.434       .  S
Zr2174     O2187   2.513   1_556  S
Zr2174     O2180   2.394       .  S
Zr2174     O2181   2.392       .  S
Zr2175     O2177   2.435       .  S
Zr2175     O2199   2.437       .  S
Zr2175     O2201   2.456       .  S
Zr2175     O2179   2.360       .  S
Zr2175     O2182   2.353       .  S
Zr2176     O2202   2.437       .  S
Zr2176     O2203   2.435       .  S
Zr2176     O2178   2.435       .  S
Zr2176     O2179   2.377       .  S
Zr2176     O2180   2.382       .  S
O2177      H2214   0.990       .  S
O2178      H2209   0.990       .  S
O2178      H2223   0.990       .  S
O2180      H2206   0.964       .  S
O2181     Zr2191   2.387       .  S
O2182     Zr2191   2.385       .  S
O2182      H2207   0.963       .  S
C2183      C2908   1.479       .  S
C2184      C2932   1.522       .  S
C2185      C2881   1.475       .  S
O2186      H2222   0.990       .  S
O2188      C2189   1.275       .  A
C2189      C2896   1.506       .  S
O2190     Zr2191   2.439       .  S
O2190      H2219   0.990       .  S
Zr2191     O2194   2.436   1_556  S
Zr2191     O2195   2.437       .  S
Zr2191     O2196   2.429   1_556  S
O2192      C2197   1.290       .  A
O2193      H2210   0.990   1_556  S
O2193      H2225   0.990       .  S
O2194      H2211   0.990       .  S
O2195      H2215   0.990       .  S
O2195      H2224   0.990       .  S
C2197      C2917   1.474       .  S
O2198      H2217   0.984       .  S
O2198      H2221   0.990       .  S
O2199      H2213   0.990       .  S
O2199      H2220   0.990       .  S
O2200      C2204   1.266   1_554  A
O2201      C2204   1.296       .  A
O2202      H2212   0.990       .  S
O2203      H2216   0.990       .  S
C2204      C2941   1.461       .  S
Zr2227     O2228   2.439       .  S
Zr2227     O2229   2.444       .  S
Zr2227     O2230   2.439       .  S
Zr2227     O2233   2.557       .  S
Zr2227     O2235   2.436       .  S
Zr2227     O2236   2.373       .  S
Zr2227     O2237   2.445       .  S
Zr2227     O2238   2.384       .  S
O2228      H2284   0.990       .  S
O2228      H2292   0.990       .  S
O2229      C2249   1.275       .  A
O2230      C2251   1.287       .  A
O2231     Zr2241   2.372       .  S
O2231      C2250   1.272       .  A
O2232     Zr2240   2.450       .  S
O2232      C2251   1.289       .  A
O2233      C2250   1.308       .  A
O2234     Zr2242   2.403       .  S
O2234      C2249   1.265       .  A
O2235     Zr2240   2.412       .  S
O2235     Zr2242   2.380       .  S
O2236     Zr2241   2.357       .  S
O2236     Zr2242   2.400       .  S
O2236      H2271   0.957       .  S
O2237     Zr2240   2.432       .  S
O2237     Zr2257   2.392       .  S
O2237      H2274   0.966       .  S
O2238     Zr2241   2.387       .  S
O2238     Zr2257   2.417       .  S
Zr2239     O2264   2.443   1_556  S
Zr2239     O2266   2.381       .  S
Zr2239     O2245   2.384       .  S
Zr2239     O2246   2.393       .  S
Zr2239     O2247   2.383       .  S
Zr2239     O2248   2.377       .  S
Zr2240     O2259   2.435       .  S
Zr2240     O2252   2.434       .  S
Zr2240     O2253   2.528   1_556  S
Zr2240     O2246   2.386       .  S
Zr2240     O2247   2.395       .  S
Zr2241     O2243   2.442       .  S
Zr2241     O2265   2.452       .  S
Zr2241     O2267   2.402       .  S
Zr2241     O2245   2.394       .  S
Zr2241     O2248   2.353       .  S
Zr2242     O2268   2.431       .  S
Zr2242     O2269   2.441       .  S
Zr2242     O2244   2.445       .  S
Zr2242     O2245   2.380       .  S
Zr2242     O2246   2.379       .  S
O2243      H2280   0.990       .  S
O2244      H2275   0.988       .  S
O2244      H2289   0.989       .  S
O2246      H2272   0.963       .  S
O2247     Zr2257   2.381       .  S
O2248     Zr2257   2.364       .  S
O2248      H2273   0.963       .  S
C2249      C2845   1.469       .  S
C2250      C2869   1.516       .  S
C2251      C2821   1.475       .  S
O2252      H2288   0.990       .  S
O2254      C2255   1.277       .  A
C2255      C2833   1.493       .  S
O2256     Zr2257   2.440       .  S
O2256      H2285   0.990       .  S
Zr2257     O2260   2.436       .  S
Zr2257     O2261   2.440       .  S
Zr2257     O2262   2.449       .  S
O2258      C2263   1.288       .  A
O2259      H2276   0.990       .  S
O2259      H2291   0.990       .  S
O2260      H2277   0.990   1_556  S
O2261      H2281   0.990       .  S
O2261      H2290   0.990       .  S
C2263      C2860   1.496       .  S
O2264      H2283   0.990   1_554  S
O2264      H2287   0.990       .  S
O2265      H2279   0.990       .  S
O2265      H2286   0.990       .  S
O2266      C2270   1.273       .  A
O2267      C2270   1.270       .  A
O2268      H2278   0.990       .  S
O2269      H2282   0.991       .  S
C2270      C2944   1.460       .  S
Zr2293     O2294   2.438       .  S
Zr2293     O2295   2.434       .  S
Zr2293     O2296   2.457       .  S
Zr2293     O2299   2.526       .  S
Zr2293     O2301   2.415       .  S
Zr2293     O2302   2.393       .  S
Zr2293     O2303   2.431       .  S
Zr2293     O2304   2.389       .  S
O2294      H2350   0.990       .  S
O2294      H2358   0.990       .  S
O2295      C2315   1.280       .  A
O2296      C2317   1.289       .  A
O2297     Zr2307   2.428       .  S
O2297      C2316   1.285       .  A
O2298     Zr2306   2.425       .  S
O2298      C2317   1.285       .  A
O2299      C2316   1.303       .  A
O2300     Zr2308   2.408       .  S
O2300      C2315   1.271       .  A
O2301     Zr2306   2.407       .  S
O2301     Zr2308   2.360       .  S
O2302     Zr2307   2.367       .  S
O2302     Zr2308   2.379       .  S
O2302      H2337   0.965       .  S
O2303     Zr2306   2.430       .  S
O2303     Zr2323   2.401       .  S
O2303      H2340   0.966       .  S
O2304     Zr2307   2.402       .  S
O2304     Zr2323   2.398       .  S
Zr2305     O2330   2.422       .  S
Zr2305     O2324   2.481       .  S
Zr2305     O2332   2.375       .  S
Zr2305     O2320   2.447       .  S
Zr2305     O2311   2.404       .  S
Zr2305     O2312   2.411       .  S
Zr2305     O2313   2.367       .  S
Zr2305     O2314   2.389       .  S
Zr2306     O2325   2.433       .  S
Zr2306     O2318   2.435       .  S
Zr2306     O2319   2.500       .  S
Zr2306     O2312   2.397       .  S
Zr2306     O2313   2.397       .  S
Zr2307     O2309   2.437       .  S
Zr2307     O2331   2.435       .  S
Zr2307     O2333   2.462       .  S
Zr2307     O2311   2.351       .  S
Zr2307     O2314   2.364       .  S
Zr2308     O2334   2.436       .  S
Zr2308     O2335   2.435       .  S
Zr2308     O2310   2.435       .  S
Zr2308     O2311   2.373       .  S
Zr2308     O2312   2.377       .  S
O2309      H2346   0.990       .  S
O2310      H2341   0.990       .  S
O2310      H2355   0.990       .  S
O2312      H2338   0.962       .  S
O2313     Zr2323   2.396       .  S
O2314     Zr2323   2.395       .  S
O2314      H2339   0.963       .  S
C2315      C2905   1.466       .  S
C2316      C2872   1.519       .  S
C2317      C2953   1.499       .  S
O2318      H2354   0.991       .  S
O2319      C2321   1.291       .  A
O2320      C2321   1.277       .  A
C2321      C2893   1.508       .  S
O2322     Zr2323   2.439       .  S
O2322      H2351   0.990       .  S
Zr2323     O2326   2.437       .  S
Zr2323     O2327   2.438       .  S
Zr2323     O2328   2.421       .  S
O2324      C2329   1.292       .  A
O2325      H2342   0.990       .  S
O2325      H2357   0.990       .  S
O2326      H2343   0.990       .  S
O2327      H2347   0.990       .  S
O2327      H2356   0.990       .  S
O2328      C2329   1.279       .  A
C2329      C2857   1.481       .  S
O2330      H2349   0.991       .  S
O2330      H2353   0.987       .  S
O2331      H2345   0.988       .  S
O2331      H2352   0.990       .  S
O2332      C2336   1.267       .  A
O2333      C2336   1.296       .  A
O2334      H2344   0.990       .  S
O2335      H2348   0.990       .  S
C2336      C2809   1.463       .  S
Zr2359     O2360   2.437       .  S
Zr2359     O2361   2.426       .  S
Zr2359     O2362   2.410       .  S
Zr2359     O2365   2.531       .  S
Zr2359     O2367   2.420       .  S
Zr2359     O2368   2.387       .  S
Zr2359     O2369   2.437       .  S
Zr2359     O2370   2.385       .  S
O2360      H2416   0.990       .  S
O2360      H2424   0.990       .  S
O2361      C2381   1.274       .  A
O2362      C2383   1.284       .  A
O2363     Zr2373   2.392       .  S
O2363      C2382   1.275       .  A
O2364     Zr2372   2.457       .  S
O2364      C2383   1.290       .  A
O2365      C2382   1.303       .  A
O2366     Zr2374   2.416       .  S
O2366      C2381   1.269       .  A
O2367     Zr2372   2.395       .  S
O2367     Zr2374   2.369       .  S
O2368     Zr2373   2.360       .  S
O2368     Zr2374   2.382       .  S
O2368      H2403   0.960       .  S
O2369     Zr2372   2.424       .  S
O2369     Zr2389   2.391       .  S
O2369      H2406   0.966       .  S
O2370     Zr2373   2.390       .  S
O2370     Zr2389   2.416       .  S
Zr2371     O2396   2.441       .  S
Zr2371     O2390   2.447       .  S
Zr2371     O2398   2.408       .  S
Zr2371     O2386   2.423       .  S
Zr2371     O2377   2.413       .  S
Zr2371     O2378   2.402       .  S
Zr2371     O2379   2.386       .  S
Zr2371     O2380   2.393       .  S
Zr2372     O2391   2.434       .  S
Zr2372     O2384   2.433       .  S
Zr2372     O2385   2.504       .  S
Zr2372     O2378   2.391       .  S
Zr2372     O2379   2.396       .  S
Zr2373     O2375   2.432       .  S
Zr2373     O2397   2.436       .  S
Zr2373     O2399   2.388       .  S
Zr2373     O2377   2.404       .  S
Zr2373     O2380   2.383       .  S
Zr2374     O2400   2.438       .  S
Zr2374     O2401   2.436       .  S
Zr2374     O2376   2.437       .  S
Zr2374     O2377   2.385       .  S
Zr2374     O2378   2.377       .  S
O2375      H2412   0.989       .  S
O2376      H2407   0.989       .  S
O2376      H2421   0.990       .  S
O2378      H2404   0.963       .  S
O2379     Zr2389   2.385       .  S
O2380     Zr2389   2.365       .  S
O2380      H2405   0.962       .  S
C2381      C2848   1.465       .  S
C2382      C2929   1.508       .  S
C2383      C2968   1.479       .  S
O2384      H2420   0.990       .  S
O2385      C2387   1.297       .  A
O2386      C2387   1.283       .  A
C2387      C2836   1.498       .  S
O2388     Zr2389   2.439       .  S
O2388      H2417   0.990       .  S
Zr2389     O2392   2.436       .  S
Zr2389     O2393   2.439       .  S
Zr2389     O2394   2.437       .  S
O2390      C2395   1.287       .  A
O2391      H2408   0.990       .  S
O2391      H2423   0.990       .  S
O2392      H2409   0.990       .  S
O2393      H2413   0.990       .  S
O2393      H2422   0.990       .  S
O2394      C2395   1.285       .  A
C2395      C2920   1.489       .  S
O2396      H2415   0.988       .  S
O2396      H2419   0.990       .  S
O2397      H2411   0.991       .  S
O2397      H2418   0.990       .  S
O2398      C2402   1.271       .  A
O2399      C2402   1.269       .  A
O2400      H2410   0.990       .  S
O2401      H2414   0.990       .  S
C2402      C2812   1.471       .  S
Zr2425     O2426   2.440       .  S
Zr2425     O2427   2.463       .  S
Zr2425     O2428   2.455       .  S
Zr2425     O2431   2.535       .  S
Zr2425     O2433   2.403       .  S
Zr2425     O2434   2.383       .  S
Zr2425     O2435   2.429       .  S
Zr2425     O2436   2.393       .  S
O2426      H2482   0.990       .  S
O2426      H2490   0.990       .  S
O2427      C2447   1.289       .  A
O2428      C2449   1.288       .  A
O2429     Zr2439   2.420       .  S
O2429      C2448   1.283       .  A
O2430     Zr2438   2.432       .  S
O2430      C2449   1.284       .  A
O2431      C2448   1.305       .  A
O2432     Zr2440   2.380       .  S
O2432      C2447   1.266       .  A
O2433     Zr2438   2.406       .  S
O2433     Zr2440   2.374       .  S
O2434     Zr2439   2.389       .  S
O2434     Zr2440   2.375       .  S
O2434      H2469   0.964       .  S
O2435     Zr2438   2.427       .  S
O2435     Zr2455   2.402       .  S
O2435      H2472   0.964       .  S
O2436     Zr2439   2.400       .  S
O2436     Zr2455   2.397       .  S
Zr2437     O2462   2.405       .  S
Zr2437     O2456   2.453       .  S
Zr2437     O2464   2.368       .  S
Zr2437     O2452   2.457       .  S
Zr2437     O2443   2.412       .  S
Zr2437     O2444   2.377       .  S
Zr2437     O2445   2.368       .  S
Zr2437     O2446   2.382       .  S
Zr2438     O2457   2.433       .  S
Zr2438     O2450   2.434       .  S
Zr2438     O2451   2.490       .  S
Zr2438     O2444   2.398       .  S
Zr2438     O2445   2.403       .  S
Zr2439     O2441   2.435       .  S
Zr2439     O2463   2.445       .  S
Zr2439     O2465   2.483       .  S
Zr2439     O2443   2.364       .  S
Zr2439     O2446   2.362       .  S
Zr2440     O2466   2.440       .  S
Zr2440     O2467   2.437       .  S
Zr2440     O2442   2.444       .  S
Zr2440     O2443   2.378       .  S
Zr2440     O2444   2.344       .  S
O2441      H2478   0.990       .  S
O2442      H2473   0.988       .  S
O2442      H2487   0.990       .  S
O2444      H2470   0.958       .  S
O2445     Zr2455   2.395       .  S
O2446     Zr2455   2.386       .  S
O2446      H2471   0.963       .  S
C2447      C2764   1.471       .  S
C2448      C2773   1.530       .  S
C2449      C2824   1.479       .  S
O2450      H2486   0.990       .  S
O2451      C2453   1.290       .  A
O2452      C2453   1.282       .  A
C2453      C2749   1.510       .  S
O2454     Zr2455   2.439       .  S
O2454      H2483   0.990       .  S
Zr2455     O2458   2.436       .  S
Zr2455     O2459   2.437       .  S
Zr2455     O2460   2.430       .  S
O2456      C2461   1.285       .  A
O2457      H2474   0.990       .  S
O2457      H2489   0.990       .  S
O2458      H2475   0.990       .  S
O2459      H2479   0.990       .  S
O2459      H2488   0.990       .  S
O2460      C2461   1.281       .  A
C2461      C2785   1.477       .  S
O2462      H2481   0.990       .  S
O2462      H2485   0.987       .  S
O2463      H2477   0.990       .  S
O2463      H2484   0.988       .  S
O2464      C2468   1.267       .  A
O2465      C2468   1.303       .  A
O2466      H2476   0.990       .  S
O2467      H2480   0.990       .  S
C2468      C2797   1.479       .  S
Zr2491     O2492   2.440       .  S
Zr2491     O2493   2.446       .  S
Zr2491     O2494   2.432       .  S
Zr2491     O2497   2.548       .  S
Zr2491     O2499   2.408       .  S
Zr2491     O2500   2.383       .  S
Zr2491     O2501   2.441       .  S
Zr2491     O2502   2.376       .  S
O2492      H2548   0.990       .  S
O2492      H2556   0.990       .  S
O2493      C2513   1.283       .  A
O2494      C2515   1.285       .  A
O2495     Zr2505   2.377       .  S
O2495      C2514   1.272       .  A
O2496     Zr2504   2.447       .  S
O2496      C2515   1.288       .  A
O2497      C2514   1.306       .  A
O2498     Zr2506   2.394       .  S
O2498      C2513   1.267       .  A
O2499     Zr2504   2.392       .  S
O2499     Zr2506   2.370       .  S
O2500     Zr2505   2.370       .  S
O2500     Zr2506   2.392       .  S
O2500      H2535   0.966       .  S
O2501     Zr2504   2.424       .  S
O2501     Zr2521   2.394       .  S
O2501      H2538   0.965       .  S
O2502     Zr2505   2.379       .  S
O2502     Zr2521   2.415       .  S
Zr2503     O2528   2.446       .  S
Zr2503     O2522   2.431       .  S
Zr2503     O2530   2.403       .  S
Zr2503     O2518   2.422       .  S
Zr2503     O2509   2.412       .  S
Zr2503     O2510   2.402       .  S
Zr2503     O2511   2.386       .  S
Zr2503     O2512   2.393       .  S
Zr2504     O2523   2.434       .  S
Zr2504     O2516   2.433       .  S
Zr2504     O2517   2.483       .  S
Zr2504     O2510   2.402       .  S
Zr2504     O2511   2.398       .  S
Zr2505     O2507   2.437       .  S
Zr2505     O2529   2.444       .  S
Zr2505     O2531   2.388       .  S
Zr2505     O2509   2.397       .  S
Zr2505     O2512   2.397       .  S
Zr2506     O2532   2.441       .  S
Zr2506     O2533   2.438       .  S
Zr2506     O2508   2.443       .  S
Zr2506     O2509   2.375       .  S
Zr2506     O2510   2.369       .  S
O2507      H2544   0.988       .  S
O2508      H2539   0.989       .  S
O2508      H2553   0.990       .  S
O2510      H2536   0.963       .  S
O2511     Zr2521   2.385       .  S
O2512     Zr2521   2.377       .  S
O2512      H2537   0.963       .  S
C2513      C2716   1.468       .  S
C2514      C2737   1.510       .  S
C2515      C2884   1.474       .  S
O2516      H2552   0.990       .  S
O2517      C2519   1.293       .  A
O2518      C2519   1.279       .  A
C2519      C2701   1.481       .  S
O2520     Zr2521   2.440       .  S
O2520      H2549   0.990       .  S
Zr2521     O2524   2.436       .  S
Zr2521     O2525   2.442       .  S
Zr2521     O2526   2.434       .  S
O2522      C2527   1.282       .  A
O2523      H2540   0.990       .  S
O2523      H2555   0.990       .  S
O2524      H2541   0.990       .  S
O2525      H2545   0.990       .  S
O2525      H2554   0.990       .  S
O2526      C2527   1.283       .  A
C2527      C2725   1.474       .  S
O2528      H2547   0.991       .  S
O2528      H2551   0.991       .  S
O2529      H2543   0.990       .  S
O2529      H2550   0.990       .  S
O2530      C2534   1.273       .  A
O2531      C2534   1.262       .  A
O2532      H2542   0.990       .  S
O2533      H2546   0.990       .  S
C2534      C2800   1.470       .  S
Zr2557     O2558   2.439   1_655  S
Zr2557     O2560   2.421       .  S
Zr2557     O2565   2.402       .  S
Zr2557     O2566   2.365       .  S
Zr2557     O2567   2.447       .  S
Zr2557     O2568   2.377   1_655  S
O2558      H2622   0.990       .  S
O2559      C2579   1.285       .  A
O2560      C2581   1.285       .  A
O2561     Zr2571   2.370       .  S
O2562     Zr2570   2.455       .  S
O2562      C2581   1.290       .  A
O2563      C2580   1.310       .  A
O2564     Zr2572   2.396       .  S
O2565     Zr2570   2.388       .  S
O2565     Zr2572   2.366       .  S
O2566     Zr2571   2.368   1_655  S
O2566     Zr2572   2.384       .  S
O2566      H2601   0.965       .  S
O2567     Zr2570   2.425       .  S
O2567     Zr2587   2.387   1_655  S
O2567      H2604   0.965   1_655  S
O2568     Zr2571   2.384       .  S
O2568     Zr2587   2.423       .  S
Zr2569     O2594   2.440       .  S
Zr2569     O2588   2.431   1_655  S
Zr2569     O2596   2.408   1_655  S
Zr2569     O2584   2.426       .  S
Zr2569     O2575   2.407       .  S
Zr2569     O2576   2.394       .  S
Zr2569     O2577   2.390       .  S
Zr2569     O2578   2.387   1_655  S
Zr2570     O2589   2.433       .  S
Zr2570     O2582   2.434       .  S
Zr2570     O2583   2.483       .  S
Zr2570     O2576   2.407       .  S
Zr2570     O2577   2.392       .  S
Zr2571     O2573   2.446       .  S
Zr2571     O2595   2.450   1_455  S
Zr2571     O2597   2.398       .  S
Zr2571     O2575   2.385   1_455  S
Zr2571     O2578   2.366       .  S
Zr2572     O2598   2.441       .  S
Zr2572     O2599   2.437       .  S
Zr2572     O2574   2.442       .  S
Zr2572     O2575   2.385       .  S
Zr2572     O2576   2.364       .  S
O2573      H2610   0.990       .  S
O2574      H2605   0.990       .  S
O2574      H2619   0.990       .  S
O2576      H2602   0.963       .  S
O2577     Zr2587   2.386   1_655  S
O2578     Zr2587   2.351       .  S
O2578      H2603   0.962       .  S
C2579      C2713   1.469       .  S
C2580      C2776   1.519       .  S
C2581      C3100   1.482       .  S
O2582      H2618   0.990       .  S
O2583      C2585   1.294       .  A
O2584      C2585   1.284       .  A
C2585      C2704   1.483       .  S
O2586     Zr2587   2.440       .  S
O2586      H2615   0.990       .  S
Zr2587     O2590   2.435       .  S
Zr2587     O2591   2.439       .  S
Zr2587     O2592   2.453       .  S
O2588      C2593   1.286       .  A
O2589      H2606   0.990       .  S
O2589      H2621   0.989       .  S
O2590      H2607   0.990       .  S
O2591      H2611   0.990       .  S
O2591      H2620   0.990       .  S
O2592      C2593   1.288       .  A
C2593      C2788   1.494       .  S
O2594      H2613   0.990       .  S
O2594      H2617   0.990       .  S
O2595      H2609   0.990       .  S
O2595      H2616   0.990       .  S
O2596      C2600   1.276       .  A
O2597      C2600   1.267       .  A
O2598      H2608   0.990       .  S
O2599      H2612   0.990       .  S
C2600      C2692   1.467       .  S
Zr2623     O2624   2.439       .  S
Zr2623     O2626   2.445       .  S
Zr2623     O2631   2.412       .  S
Zr2623     O2632   2.382       .  S
Zr2623     O2633   2.436       .  S
Zr2623     O2634   2.384   1_455  S
O2624      H2688   0.990   1_455  S
O2625      C2645   1.287       .  A
O2626      C2647   1.287       .  A
O2627     Zr2637   2.405   1_655  S
O2628     Zr2636   2.430       .  S
O2628      C2647   1.286       .  A
O2629      C2646   1.307       .  A
O2630     Zr2638   2.382       .  S
O2631     Zr2636   2.406       .  S
O2631     Zr2638   2.360       .  S
O2632     Zr2637   2.386       .  S
O2632     Zr2638   2.387       .  S
O2632      H2667   0.965       .  S
O2633     Zr2636   2.433       .  S
O2633     Zr2653   2.410   1_455  S
O2633      H2670   0.966       .  S
O2634     Zr2637   2.391   1_655  S
O2634     Zr2653   2.393       .  S
Zr2635     O2660   2.401       .  S
Zr2635     O2654   2.442       .  S
Zr2635     O2662   2.410       .  S
Zr2635     O2650   2.446       .  S
Zr2635     O2641   2.381       .  S
Zr2635     O2642   2.396       .  S
Zr2635     O2643   2.368       .  S
Zr2635     O2644   2.388       .  S
Zr2636     O2655   2.433       .  S
Zr2636     O2648   2.436       .  S
Zr2636     O2649   2.504       .  S
Zr2636     O2642   2.399       .  S
Zr2636     O2643   2.399       .  S
Zr2637     O2639   2.437   1_455  S
Zr2637     O2661   2.443       .  S
Zr2637     O2663   2.456       .  S
Zr2637     O2641   2.337       .  S
Zr2637     O2644   2.379       .  S
Zr2638     O2664   2.439       .  S
Zr2638     O2665   2.437       .  S
Zr2638     O2640   2.444       .  S
Zr2638     O2641   2.350       .  S
Zr2638     O2642   2.361       .  S
O2639      H2676   0.990       .  S
O2640      H2671   0.989       .  S
O2640      H2685   0.990       .  S
O2642      H2668   0.958       .  S
O2643     Zr2653   2.392   1_455  S
O2644     Zr2653   2.393   1_455  S
O2644      H2669   0.964   1_455  S
C2645      C2761   1.469       .  S
C2646      C2740   1.530       .  S
C2647      C3112   1.489       .  S
O2648      H2684   0.991       .  S
O2649      C2651   1.291       .  A
O2650      C2651   1.275       .  A
C2651      C2752   1.509       .  S
O2652     Zr2653   2.440       .  S
O2652      H2681   0.990       .  S
Zr2653     O2656   2.436       .  S
Zr2653     O2657   2.437       .  S
Zr2653     O2658   2.431       .  S
O2654      C2659   1.283   1_455  A
O2655      H2672   0.990       .  S
O2655      H2687   0.990       .  S
O2656      H2673   0.990       .  S
O2657      H2677   0.990       .  S
O2657      H2686   0.990       .  S
O2658      C2659   1.282       .  A
C2659      C2728   1.468       .  S
O2660      H2679   0.987       .  S
O2660      H2683   0.990       .  S
O2661      H2675   0.990       .  S
O2661      H2682   0.988       .  S
O2662      C2666   1.277       .  A
O2663      C2666   1.297       .  A
O2664      H2674   0.990       .  S
O2665      H2678   0.990       .  S
C2666      C2689   1.476       .  S
C2689      C2690   1.391       .  A
C2689      C2694   1.394       .  A
C2690      C2691   1.396       .  A
C2690      H2699   1.084       .  S
C2691      C2692   1.430       .  A
C2691      S2695   1.791       .  S
C2692      C2693   1.409       .  A
C2693      C2694   1.394       .  A
C2693      H2700   1.083       .  S
C2694      S2696   1.774       .  S
S2695      H2698   1.404       .  S
S2696      H2697   1.408       .  S
C2701      C2702   1.409       .  A
C2701      C2706   1.410       .  A
C2702      C2703   1.406       .  A
C2702      H2711   1.084       .  S
C2703      C2704   1.409       .  A
C2703      S2707   1.802       .  S
C2704      C2705   1.408       .  A
C2705      C2706   1.406       .  A
C2705      H2712   1.084       .  S
C2706      S2708   1.802       .  S
S2707      H2710   1.407       .  S
S2708      H2709   1.407       .  S
C2713      C2714   1.409       .  A
C2713      C2718   1.404       .  A
C2714      C2715   1.391       .  A
C2714      H2723   1.080       .  S
C2715      C2716   1.403       .  A
C2715      S2719   1.803       .  S
C2716      C2717   1.409       .  A
C2717      C2718   1.393       .  A
C2717      H2724   1.079       .  S
C2718      S2720   1.803       .  S
S2719      H2722   1.408       .  S
S2720      H2721   1.406       .  S
C2725      C2726   1.406       .  A
C2725      C2730   1.412       .  A
C2726      C2727   1.400       .  A
C2726      H2735   1.084       .  S
C2727      C2728   1.408       .  A
C2727      S2731   1.804       .  S
C2728      C2729   1.403       .  A
C2729      C2730   1.399       .  A
C2729      H2736   1.084       .  S
C2730      S2732   1.804       .  S
S2731      H2734   1.406       .  S
S2732      H2733   1.406       .  S
C2737      C2738   1.417       .  A
C2737      C2742   1.410       .  A
C2738      C2739   1.418       .  A
C2738      H2747   1.082       .  S
C2739      C2740   1.418       .  A
C2739      S2743   1.799       .  S
C2740      C2741   1.423       .  A
C2741      C2742   1.414       .  A
C2741      H2748   1.083   1_556  S
C2742      S2744   1.802       .  S
S2743      H2746   1.407   1_655  S
S2744      H2745   1.404       .  S
C2749      C2750   1.413       .  A
C2749      C2754   1.413       .  A
C2750      C2751   1.414       .  A
C2750      H2759   1.081       .  S
C2751      C2752   1.414       .  A
C2751      S2755   1.802       .  S
C2752      C2753   1.413       .  A
C2753      C2754   1.413       .  A
C2753      H2760   1.080       .  S
C2754      S2756   1.802       .  S
S2755      H2758   1.406       .  S
S2756      H2757   1.407       .  S
C2761      C2762   1.393       .  A
C2761      C2766   1.420       .  A
C2762      C2763   1.394       .  A
C2762      H2771   1.083       .  S
C2763      C2764   1.421       .  A
C2763      S2767   1.804       .  S
C2764      C2765   1.395       .  A
C2765      C2766   1.396       .  A
C2765      H2772   1.083       .  S
C2766      S2768   1.805       .  S
S2767      H2770   1.407       .  S
C2773      C2774   1.424       .  A
C2773      C2778   1.418       .  A
C2774      C2775   1.419       .  A
C2774      H2783   1.083       .  S
C2775      C2776   1.413       .  A
C2775      S2779   1.801       .  S
C2776      C2777   1.418       .  A
C2777      C2778   1.413       .  A
C2777      H2784   1.084       .  S
C2778      S2780   1.800       .  S
S2779      H2782   1.406   1_455  S
S2780      H2781   1.408       .  S
C2785      C2786   1.404       .  A
C2785      C2790   1.407       .  A
C2786      C2787   1.400       .  A
C2786      H2795   1.085       .  S
C2787      C2788   1.417       .  A
C2787      S2791   1.804       .  S
C2788      C2789   1.413       .  A
C2789      C2790   1.406       .  A
C2789      H2796   1.083       .  S
C2790      S2792   1.803       .  S
S2791      H2794   1.407       .  S
S2792      H2793   1.405       .  S
C2797      C2798   1.388       .  A
C2797      C2802   1.398       .  A
C2798      C2799   1.394   1_455  A
C2798      H2807   1.084       .  S
C2799      C2800   1.435       .  A
C2799      S2803   1.789       .  S
C2800      C2801   1.407       .  A
C2801      C2802   1.393   1_655  A
C2801      H2808   1.078       .  S
C2802      S2804   1.789       .  S
S2803      H2806   1.388   1_655  S
S2804      H2805   1.407       .  S
C2809      C2810   1.390       .  A
C2809      C2814   1.395       .  A
C2810      C2811   1.397       .  A
C2810      H2819   1.078       .  S
C2811      C2812   1.419       .  A
C2811      S2815   1.788       .  S
C2812      C2813   1.416       .  A
C2813      C2814   1.393       .  A
C2813      H2820   1.074       .  S
C2814      S2816   1.796       .  S
S2815      H2818   1.405       .  S
S2816      H2817   1.408       .  S
C2821      C2822   1.403       .  A
C2821      C2826   1.412       .  A
C2822      C2823   1.398       .  A
C2822      H2831   1.084       .  S
C2823      C2824   1.412       .  A
C2823      S2827   1.801       .  S
C2824      C2825   1.406       .  A
C2825      C2826   1.405       .  A
C2825      H2832   1.084       .  S
C2826      S2828   1.804       .  S
S2827      H2830   1.405       .  S
S2828      H2829   1.406       .  S
C2833      C2834   1.404       .  A
C2833      C2838   1.420       .  A
C2834      C2835   1.410       .  A
C2834      H2843   1.083       .  S
C2835      C2836   1.417       .  A
C2835      S2839   1.807       .  S
C2836      C2837   1.403       .  A
C2837      C2838   1.413       .  A
C2837      H2844   1.083       .  S
C2838      S2840   1.800       .  S
S2839      H2842   1.407       .  S
S2840      H2841   1.406       .  S
C2845      C2846   1.399       .  A
C2845      C2850   1.411       .  A
C2846      C2847   1.388       .  A
C2846      H2855   1.065       .  S
C2847      C2848   1.402       .  A
C2847      S2851   1.808       .  S
C2848      C2849   1.408       .  A
C2849      C2850   1.404       .  A
C2849      H2856   1.084       .  S
C2850      S2852   1.803       .  S
S2851      H2854   1.407       .  S
S2852      H2853   1.406       .  S
C2857      C2858   1.405       .  A
C2857      C2862   1.409       .  A
C2858      C2859   1.405       .  A
C2858      H2867   1.083       .  S
C2859      C2860   1.413       .  A
C2859      S2863   1.805       .  S
C2860      C2861   1.412       .  A
C2861      C2862   1.406       .  A
C2861      H2868   1.083       .  S
C2862      S2864   1.803       .  S
S2863      H2866   1.406       .  S
S2864      H2865   1.405       .  S
C2869      C2870   1.410       .  A
C2869      C2874   1.424       .  A
C2870      C2871   1.403       .  A
C2870      H2879   1.085       .  S
C2871      C2872   1.417       .  A
C2871      S2875   1.803       .  S
C2872      C2873   1.416       .  A
C2873      C2874   1.430       .  A
C2873      H2880   1.083       .  S
C2874      S2876   1.801       .  S
S2875      H2878   1.407       .  S
S2876      H2877   1.404       .  S
C2881      C2882   1.405       .  A
C2881      C2886   1.413       .  A
C2882      C2883   1.402       .  A
C2882      H2891   1.084       .  S
C2883      C2884   1.411       .  A
C2883      S2887   1.799       .  S
C2884      C2885   1.402       .  A
C2885      C2886   1.398       .  A
C2885      H2892   1.084       .  S
C2886      S2888   1.803       .  S
S2887      H2890   1.404       .  S
S2888      H2889   1.406       .  S
C2893      C2894   1.410       .  A
C2893      C2898   1.417       .  A
C2894      C2895   1.412       .  A
C2894      H2903   1.082       .  S
C2895      C2896   1.415       .  A
C2895      S2899   1.802       .  S
C2896      C2897   1.411       .  A
C2897      C2898   1.417       .  A
C2897      H2904   1.083       .  S
C2898      S2900   1.801       .  S
S2899      H2902   1.407       .  S
S2900      H2901   1.406       .  S
C2905      C2906   1.400       .  A
C2905      C2910   1.408       .  A
C2906      C2907   1.398       .  A
C2906      H2915   1.082       .  S
C2907      C2908   1.417       .  A
C2907      S2911   1.811       .  S
C2908      C2909   1.408       .  A
C2909      C2910   1.399       .  A
C2909      H2916   1.084       .  S
C2910      S2912   1.804       .  S
S2911      H2914   1.407       .  S
S2912      H2913   1.407       .  S
C2917      C2918   1.406       .  A
C2917      C2922   1.407       .  A
C2918      C2919   1.403       .  A
C2918      H2927   1.084       .  S
C2919      C2920   1.415       .  A
C2919      S2923   1.804       .  S
C2920      C2921   1.411       .  A
C2921      C2922   1.401       .  A
C2921      H2928   1.083       .  S
C2922      S2924   1.802       .  S
S2923      H2926   1.407       .  S
S2924      H2925   1.406       .  S
C2929      C2930   1.402       .  A
C2929      C2934   1.421       .  A
C2930      C2931   1.415       .  A
C2930      H2939   1.083       .  S
C2931      C2932   1.431       .  A
C2931      S2935   1.802       .  S
C2932      C2933   1.406       .  A
C2933      C2934   1.416       .  A
C2933      H2940   1.082       .  S
C2934      S2936   1.805       .  S
S2935      H2938   1.408       .  S
S2936      H2937   1.407       .  S
C2941      C2942   1.389       .  A
C2941      C2946   1.397   1_556  A
C2942      C2943   1.396       .  A
C2942      H2951   1.083       .  S
C2943      C2944   1.425       .  A
C2943      S2947   1.799       .  S
C2944      C2945   1.409   1_556  A
C2945      C2946   1.386       .  A
S2947      H2950   1.407       .  S
S2948      H2949   1.398       .  S
C2953      C2954   1.410       .  A
C2953      C2958   1.420       .  A
C2954      C2955   1.394       .  A
C2954      H2963   1.083       .  S
C2955      C2956   1.410       .  A
C2955      S2959   1.805   1_545  S
C2956      C2957   1.406       .  A
C2957      C2958   1.412       .  A
C2957      H2964   1.083       .  S
C2958      S2960   1.808       .  S
S2959      H2962   1.407       .  S
S2960      H2961   1.407       .  S
C2965      C2966   1.411       .  A
C2965      C2970   1.419       .  A
C2966      C2967   1.405       .  A
C2966      H2975   1.084       .  S
C2967      C2968   1.412       .  A
C2967      S2971   1.800       .  S
C2968      C2969   1.402       .  A
C2969      C2970   1.392       .  A
C2969      H2976   1.085       .  S
C2970      S2972   1.803       .  S
S2971      H2974   1.406       .  S
S2972      H2973   1.407       .  S
C2977      C2978   1.392       .  A
C2977      C2982   1.397       .  A
C2978      C2979   1.394       .  A
C2978      H2987   1.084       .  S
C2979      C2980   1.422       .  A
C2979      S2983   1.792       .  S
C2980      C2981   1.409       .  A
C2981      C2982   1.391       .  A
C2981      H2988   1.079       .  S
C2982      S2984   1.793       .  S
S2983      H2986   1.407       .  S
S2984      H2985   1.408       .  S
C2989      C2990   1.408       .  A
C2989      C2994   1.409       .  A
C2990      C2991   1.401       .  A
C2990      H2999   1.084       .  S
C2991      C2992   1.406       .  A
C2991      S2995   1.804       .  S
C2992      C2993   1.410       .  A
C2993      C2994   1.405       .  A
C2993      H3000   1.084       .  S
C2994      S2996   1.805       .  S
S2995      H2998   1.406       .  S
S2996      H2997   1.404       .  S
C3001      C3002   1.419       .  A
C3001      C3006   1.408       .  A
C3002      C3003   1.429       .  A
C3002      H3011   1.083       .  S
C3003      C3004   1.421       .  A
C3003      S3007   1.796       .  S
C3004      C3005   1.426       .  A
C3005      C3006   1.405       .  A
C3005      H3012   1.082       .  S
C3006      S3008   1.807       .  S
S3007      H3010   1.407       .  S
S3008      H3009   1.405       .  S
C3013      C3014   1.411       .  A
C3013      C3018   1.416       .  A
C3014      C3015   1.414       .  A
C3014      H3023   1.083       .  S
C3015      C3016   1.415       .  A
C3015      S3019   1.802       .  S
C3016      C3017   1.409       .  A
C3017      C3018   1.413       .  A
C3017      H3024   1.084       .  S
C3018      S3020   1.802       .  S
S3019      H3022   1.407       .  S
S3020      H3021   1.407       .  S
C3025      C3026   1.397       .  A
C3025      C3030   1.410       .  A
C3026      C3027   1.391       .  A
C3026      H3035   1.080       .  S
C3027      C3028   1.413       .  A
C3027      S3031   1.807       .  S
C3028      C3029   1.406       .  A
C3029      C3030   1.400       .  A
C3029      H3036   1.084       .  S
C3030      S3032   1.803       .  S
S3031      H3034   1.406       .  S
S3032      H3033   1.406       .  S
C3037      C3038   1.402       .  A
C3037      C3042   1.407       .  A
C3038      C3039   1.398       .  A
C3038      H3047   1.085       .  S
C3039      C3040   1.419       .  A
C3039      S3043   1.802       .  S
C3040      C3041   1.415       .  A
C3041      C3042   1.405       .  A
C3041      H3048   1.083       .  S
C3042      S3044   1.803       .  S
S3043      H3046   1.408       .  S
S3044      H3045   1.406       .  S
C3049      C3050   1.419       .  A
C3049      C3054   1.422       .  A
C3050      C3051   1.420       .  A
C3050      H3059   1.083       .  S
C3051      C3052   1.419       .  A
C3051      S3055   1.798       .  S
C3052      C3053   1.417       .  A
C3053      C3054   1.421       .  A
C3053      H3060   1.083       .  S
C3054      S3056   1.798       .  S
S3055      H3058   1.407       .  S
S3056      H3057   1.407       .  S
C3061      C3062   1.412       .  A
C3061      C3066   1.414       .  A
C3062      C3063   1.412       .  A
C3062      H3071   1.081       .  S
C3063      C3064   1.413       .  A
C3063      S3067   1.802       .  S
C3064      C3065   1.408       .  A
C3065      C3066   1.410       .  A
C3065      H3072   1.084       .  S
C3066      S3068   1.802       .  S
S3067      H3070   1.407       .  S
S3068      H3069   1.407       .  S
C3073      C3074   1.408       .  A
C3073      C3078   1.403       .  A
C3074      C3075   1.398       .  A
C3074      H3083   1.079       .  S
C3075      C3076   1.405       .  A
C3075      S3079   1.806       .  S
C3076      C3077   1.410       .  A
C3077      C3078   1.394       .  A
C3077      H3084   1.081       .  S
C3078      S3080   1.804       .  S
S3079      H3082   1.407       .  S
S3080      H3081   1.407       .  S
C3085      C3086   1.389       .  A
C3085      C3090   1.400       .  A
C3086      C3087   1.389       .  A
C3086      H3095   1.085       .  S
C3087      C3088   1.416       .  A
C3087      S3091   1.791       .  S
C3088      C3089   1.406       .  A
C3089      C3090   1.395       .  A
S3091      H3094   1.404       .  S
S3092      H3093   1.407       .  S
C3097      C3102   1.423       .  A
C3098      C3099   1.403       .  A
C3098      H3107   1.084   1_545  S
C3099      C3100   1.414       .  A
C3099      S3103   1.799       .  S
C3101      C3102   1.398       .  A
C3101      H3108   1.082       .  S
C3102      S3104   1.811       .  S
S3103      H3106   1.407       .  S
S3104      H3105   1.407       .  S
C3109      C3110   1.405       .  A
C3110      C3111   1.403       .  A
C3110      H3119   1.084       .  S
C3111      S3115   1.802       .  S
C3112      C3113   1.407       .  A
C3113      C3114   1.396       .  A
C3113      H3120   1.084       .  S
C3114      S3116   1.805       .  S
S3116      H3117   1.408       .  S
C3121      C3122   1.390       .  A
C3121      C3126   1.400       .  A
C3122      C3123   1.392       .  A
C3122      H3131   1.085       .  S
C3123      C3124   1.421       .  A
C3123      S3127   1.791       .  S
C3124      C3125   1.407       .  A
C3125      C3126   1.391       .  A
C3125      H3132   1.080   1_655  S
C3126      S3128   1.794       .  S
S3127      H3130   1.406   1_655  S
S3128      H3129   1.408       .  S
C3133      C3134   1.401       .  A
C3133      C3138   1.413       .  A
C3134      C3135   1.393       .  A
C3134      H3143   1.084       .  S
C3135      C3136   1.409       .  A
C3135      S3139   1.803       .  S
C3136      C3137   1.401       .  A
C3137      C3138   1.401       .  A
C3137      H3144   1.084       .  S
C3138      S3140   1.803       .  S
S3139      H3142   1.406       .  S
S3140      H3141   1.407       .  S
C3145      C3146   1.409       .  A
C3145      C3150   1.407       .  A
C3146      C3147   1.402       .  A
C3146      H3155   1.084       .  S
C3147      C3148   1.407       .  A
C3147      S3151   1.805       .  S
C3148      C3149   1.408       .  A
C3149      C3150   1.402       .  A
C3149      H3156   1.084       .  S
C3150      S3152   1.804       .  S
S3151      H3154   1.405       .  S
S3152      H3153   1.406       .  S
C3157      C3158   1.420       .  A
C3157      C3162   1.412       .  A
C3158      C3159   1.418       .  A
C3158      H3167   1.084       .  S
C3159      C3160   1.414       .  A
C3159      S3163   1.798       .  S
C3160      C3161   1.421       .  A
C3161      C3162   1.417       .  A
C3161      H3168   1.084       .  S
C3162      S3164   1.798       .  S
S3163      H3166   1.406       .  S
S3164      H3165   1.406       .  S
C3169      C3170   1.411       .  A
C3169      C3174   1.415       .  A
C3170      C3171   1.414       .  A
C3170      H3179   1.082       .  S
C3171      C3172   1.414       .  A
C3171      S3175   1.802       .  S
C3172      C3173   1.408       .  A
C3173      C3174   1.411       .  A
C3173      H3180   1.084       .  S
C3174      S3176   1.802       .  S
S3175      H3178   1.407       .  S
S3176      H3177   1.407       .  S
C3181      C3182   1.398       .  A
C3181      C3186   1.410       .  A
C3182      C3183   1.393       .  A
C3182      H3191   1.079       .  S
C3183      C3184   1.412       .  A
C3183      S3187   1.809       .  S
C3184      C3185   1.406       .  A
C3185      C3186   1.400       .  A
C3185      H3192   1.084       .  S
C3186      S3188   1.803       .  S
S3187      H3190   1.406       .  S
S3188      H3189   1.406       .  S
C3193      C3194   1.404       .  A
C3193      C3198   1.411       .  A
C3194      C3195   1.402       .  A
C3194      H3203   1.084       .  S
C3195      C3196   1.411       .  A
C3195      S3199   1.797       .  S
C3196      C3197   1.402       .  A
C3197      C3198   1.395       .  A
C3197      H3204   1.084       .  S
C3198      S3200   1.803       .  S
S3199      H3202   1.405       .  S
S3200      H3201   1.405       .  S
C3205      C3206   1.413       .  A
C3205      C3210   1.417       .  A
C3206      C3207   1.402       .  A
C3206      H3215   1.083       .  S
C3207      C3208   1.406       .  A
C3207      S3211   1.803       .  S
C3208      C3209   1.402       .  A
C3209      C3210   1.397       .  A
C3209      H3216   1.085       .  S
C3210      S3212   1.802       .  S
S3211      H3214   1.406       .  S
S3212      H3213   1.408       .  S
C3217      C3218   1.407       .  A
C3217      C3222   1.428       .  A
C3218      C3219   1.421       .  A
C3218      H3227   1.084       .  S
C3219      C3220   1.431       .  A
C3219      S3223   1.798       .  S
C3220      C3221   1.410       .  A
C3221      C3222   1.422       .  A
C3221      H3228   1.083       .  S
C3222      S3224   1.802       .  S
S3224      H3225   1.407       .  S
C3229      C3230   1.399       .  A
C3229      C3234   1.409       .  A
C3230      C3231   1.392       .  A
C3230      H3239   1.079       .  S
C3231      C3232   1.412       .  A
C3231      S3235   1.808       .  S
C3232      C3233   1.407       .  A
C3233      C3234   1.400       .  A
C3233      H3240   1.084       .  S
C3234      S3236   1.803       .  S
S3236      H3237   1.406       .  S
C3241      C3242   1.411       .  A
C3241      C3246   1.414       .  A
C3242      C3243   1.412       .  A
C3242      H3251   1.082       .  S
C3243      C3244   1.415       .  A
C3243      S3247   1.803       .  S
C3244      C3245   1.409       .  A
C3245      C3246   1.413       .  A
C3245      H3252   1.084       .  S
C3246      S3248   1.801       .  S
S3247      H3250   1.407       .  S
S3248      H3249   1.407       .  S
C3253      C3254   1.392       .  A
C3253      C3258   1.400       .  A
C3254      C3255   1.393   1_455  A
C3254      H3263   1.085       .  S
C3255      C3256   1.418       .  A
C3255      S3259   1.794       .  S
C3256      C3257   1.410       .  A
C3257      C3258   1.392   1_655  A
C3257      H3264   1.081       .  S
C3258      S3260   1.796       .  S
S3259      H3262   1.406   1_655  S
S3260      H3261   1.407       .  S
