geometry optimzed in LAMMPS
_audit_creation_date              2020-12-01 
_audit_creation_method            'lammps2cif' 
_symmetry_space_group_name_H-M    'P1' 
_symmetry_Int_Tables_number       1 
_symmetry_cell_setting            triclinic 
loop_ 
_symmetry_equiv_pos_as_xyz 
  x,y,z 
_cell_length_a                    65.39279948 
_cell_length_b                    65.29676849459115 
_cell_length_c                    35.25249061245079 
_cell_angle_alpha                 89.9716540244868 
_cell_angle_beta                  89.86576692677467 
_cell_angle_gamma                 90.03106025576615 
loop_ 
_atom_site_label 
_atom_site_type_symbol 
_atom_site_fract_x 
_atom_site_fract_y 
_atom_site_fract_z 
_atom_site_charge 
Zr1        Zr  0.90980294  0.39097693  0.40004583     2.17500
O2          O  0.93091209  0.41554394  0.36533867    -0.51900
O3          O  0.90323417  0.37987677  0.33441939    -0.75100
O4          O  0.94642311  0.38263675  0.39989410    -0.81900
O5          O  0.86285391  0.42278173  0.39466926    -0.83700
O6          O  0.95266708  0.35477912  0.43692968    -0.79300
O7          O  0.89712467  0.42599085  0.38960556    -0.90900
O8          O  0.88328533  0.35149720  0.33606878    -0.76900
O9          O  0.90866478  0.35450740  0.40620764    -0.86400
O10         O  0.87470922  0.38168078  0.39374377    -0.86100
O11         O  0.92277576  0.38286530  0.46246148    -0.72800
O12         O  0.89228650  0.40858324  0.45059231    -0.85000
Zr13       Zr  0.86820835  0.35365046  0.51292772     2.26400
Zr14       Zr  0.92083199  0.34620284  0.46879894     2.06300
Zr15       Zr  0.85748633  0.39819047  0.44520953     2.10000
Zr16       Zr  0.87357741  0.34543748  0.40055397     1.78800
O17         O  0.85011288  0.42729110  0.48619805    -0.93800
O18         O  0.88908592  0.31305707  0.38173499    -0.41600
O19         O  0.85576299  0.36180320  0.45089808    -0.78200
O20         O  0.88575604  0.33639576  0.46180927    -0.96900
O21         O  0.90321590  0.36314487  0.51937241    -0.90200
O22         O  0.86928186  0.39022978  0.50787267    -0.93000
C23         C  0.89332829  0.36524324  0.31820622     1.00700
C24         C  0.87884012  0.43295005  0.38556028     1.13700
C25         C  0.95847940  0.36922308  0.41460681     1.04400
O26         O  0.93302394  0.31535546  0.43732284    -0.95200
O27         O  0.91412373  0.31610561  0.50899254    -0.90900
O28         O  0.88129094  0.31976878  0.52930354    -0.84100
C29         C  0.89798037  0.30947240  0.52607329     1.11100
O30         O  0.92600753  0.42948892  0.50237979    -0.97200
Zr31       Zr  0.90449472  0.39946886  0.51228866     1.88900
O32         O  0.87420654  0.36520220  0.57806425    -0.73800
O33         O  0.94736367  0.34692380  0.51719409    -0.53100
O34         O  0.93827382  0.39901207  0.54137739    -0.97700
O35         O  0.88794927  0.42959696  0.53927891    -0.55000
O36         O  0.89778530  0.39068307  0.57727188    -0.74300
C37         C  0.88616519  0.37800950  0.59464164     0.98000
O38         O  0.84726755  0.32966018  0.54944782    -0.63100
O39         O  0.82545073  0.40975791  0.41698640    -0.57900
O40         O  0.83090719  0.35842415  0.50615973    -0.94600
O41         O  0.82561565  0.38161866  0.45918642    -0.93100
O42         O  0.84131163  0.34934453  0.36701364    -0.93400
O43         O  0.84965333  0.31703142  0.40648125    -0.92200
C44         C  0.81927599  0.36841706  0.48325672     1.16900
H45         H  0.86892245  0.38600321  0.36985950     0.32800
H46         H  0.88414566  0.32172518  0.46235393     0.43700
H47         H  0.86107709  0.39656882  0.52738141     0.37200
H48         H  0.93663368  0.38755639  0.46560231     0.33700
H49         H  0.88292373  0.30984236  0.35680568     0.25500
H50         H  0.95256967  0.36115992  0.51680959     0.31400
H51         H  0.93704623  0.38976041  0.56351469     0.37300
H52         H  0.83478482  0.36146060  0.37880686     0.31800
H53         H  0.82569036  0.42490551  0.41828126     0.30600
H54         H  0.85417427  0.43939691  0.47101262     0.32300
H55         H  0.88790168  0.43989385  0.51864984     0.31300
H56         H  0.84484968  0.31768680  0.43311359     0.35300
H57         H  0.83801371  0.33805732  0.56536436     0.28000
H58         H  0.93830139  0.40755177  0.34577135     0.32200
H59         H  0.93133326  0.42793646  0.47621905     0.35100
H60         H  0.82656206  0.40646853  0.38963431     0.27700
H61         H  0.83828906  0.32267171  0.53091573     0.40600
H62         H  0.94681340  0.31298712  0.44800460     0.30600
H63         H  0.90349463  0.31646869  0.37580384     0.38300
H64         H  0.89780934  0.43497180  0.55809548     0.30100
H65         H  0.93993852  0.34577953  0.54161750     0.30200
H66         H  0.94156111  0.42018946  0.38332621     0.30400
Zr67       Zr  0.91089685  0.38503033  0.89902973     2.17500
O68         O  0.93380818  0.40810991  0.86468822    -0.51900
O69         O  0.90324535  0.37430269  0.83421606    -0.75100
O70         O  0.94649223  0.37347443  0.89637863    -0.81900
O71         O  0.86885055  0.42521508  0.90586470    -0.83700
O72         O  0.95045723  0.34508198  0.93310011    -0.79300
O73         O  0.90203343  0.42108141  0.88846379    -0.90900
O74         O  0.88180690  0.34701770  0.83554516    -0.76900
O75         O  0.90685795  0.34879818  0.90531250    -0.86400
O76         O  0.87514024  0.37849313  0.89310989    -0.86100
O77         O  0.92407089  0.37626624  0.96073378    -0.72800
O78         O  0.89468351  0.40369658  0.94927215    -0.85000
Zr79       Zr  0.86706829  0.35209958  0.01274360     2.26400
Zr80       Zr  0.91874886  0.34001825  0.96769518     2.06300
Zr81       Zr  0.85903000  0.39630924  0.94428723     2.10000
Zr82       Zr  0.87119398  0.34243345  0.90014367     1.78800
O83         O  0.84686596  0.42411697  0.98446175    -0.93800
O84         O  0.88361292  0.30866941  0.88186513    -0.41600
O85         O  0.85490964  0.36032173  0.95058552    -0.78200
O86         O  0.88285769  0.33287387  0.96163813    -0.96900
O87         O  0.90281937  0.35850954  0.01831719    -0.90200
O88         O  0.87117271  0.38833737  0.00673404    -0.93000
C89         C  0.89271296  0.36020360  0.81794301     1.00700
C90         C  0.88555162  0.43176945  0.89119868     1.13700
C91         C  0.95723673  0.35878377  0.91017317     1.04400
O92         O  0.93294786  0.30898053  0.93992838    -0.95200
O93         O  0.90928464  0.31027307  0.00614951    -0.90900
O94         O  0.87802253  0.31780847  0.03056122    -0.84100
C95         C  0.89328748  0.30571100  0.02574417     1.11100
O96         O  0.93380691  0.42001701  0.00023188    -0.97200
Zr97       Zr  0.90718737  0.39448143  0.01032244     1.88900
O98         O  0.87384606  0.36466562  0.07737938    -0.73800
O99         O  0.94397076  0.34082583  0.01840973    -0.53100
O100        O  0.93809562  0.38834668  0.04711547    -0.97700
O101        O  0.89655368  0.42884772  0.02871851    -0.55000
O102        O  0.89793581  0.38960483  0.07522425    -0.74300
C103        C  0.88576462  0.37782143  0.09325372     0.98000
O104        O  0.84169962  0.33448173  0.05187447    -0.63100
O105        O  0.83360229  0.40692739  0.89773081    -0.57900
O106        O  0.82999314  0.35736652  0.00391102    -0.94600
O107        O  0.82577902  0.38266445  0.96036481    -0.93100
O108        O  0.83979260  0.34905747  0.86524847    -0.93400
O109        O  0.84508048  0.31604756  0.90678435    -0.92200
C110        C  0.81878436  0.36876318  0.98250370     1.16900
H111        H  0.86969330  0.38335513  0.86927235     0.32800
H112        H  0.87989330  0.31840407  0.96263135     0.43700
H113        H  0.86366098  0.39553067  0.02617433     0.37200
H114        H  0.93836110  0.37971576  0.96303687     0.33700
H115        H  0.87716705  0.30593775  0.85698494     0.25500
H116        H  0.93685192  0.33513424  0.04088530     0.31400
H117        H  0.94802344  0.38231605  0.02908081     0.37300
H118        H  0.83071780  0.35597454  0.88374389     0.31800
H119        H  0.82652294  0.39422400  0.88985254     0.30600
H120        H  0.84329149  0.43525073  0.96659217     0.32300
H121        H  0.89695542  0.42892504  0.05678879     0.31300
H122        H  0.83615452  0.32096998  0.92759754     0.35300
H123        H  0.83870472  0.32146236  0.03857655     0.28000
H124        H  0.93999510  0.39987295  0.84406425     0.32200
H125        H  0.93566836  0.42049484  0.97236035     0.35100
H126        H  0.82324051  0.41470010  0.91233513     0.27700
H127        H  0.84894688  0.33035752  0.07530056     0.40600
H128        H  0.92104953  0.30172297  0.92902057     0.30600
H129        H  0.89825327  0.31075442  0.87581045     0.38300
H130        H  0.88184335  0.42958993  0.02242443     0.30100
H131        H  0.95406874  0.33019545  0.01132065     0.30200
H132        H  0.94519750  0.41127886  0.88221764     0.30400
Zr133      Zr  0.90938607  0.11382810  0.24474180     2.17500
O134        O  0.93077028  0.08665832  0.27094806    -0.51900
O135        O  0.90707581  0.12399609  0.31192278    -0.75100
O136        O  0.94630135  0.12120499  0.24214365    -0.81900
O137        O  0.86246154  0.07809790  0.23866710    -0.83700
O138        O  0.95126583  0.14984968  0.20675632    -0.79300
O139        O  0.89601501  0.07921530  0.25520487    -0.90900
O140        O  0.88841408  0.15318547  0.31626519    -0.76900
O141        O  0.91040868  0.15023000  0.24002435    -0.86400
O142        O  0.87559355  0.12545018  0.25893988    -0.86100
O143        O  0.91923503  0.12093531  0.18002684    -0.72800
O144        O  0.88757773  0.09905904  0.19728475    -0.85000
Zr145      Zr  0.86401892  0.15527257  0.14288066     2.26400
Zr146      Zr  0.91939444  0.15755147  0.17545071     2.06300
Zr147      Zr  0.85398860  0.11108566  0.21125885     2.10000
Zr148      Zr  0.87671022  0.16186206  0.25362102     1.78800
O149        O  0.83371452  0.08626081  0.17603917    -0.93800
O150        O  0.89644701  0.19190799  0.27212775    -0.41600
O151        O  0.85454113  0.14757861  0.20704276    -0.78200
O152        O  0.88596703  0.17065206  0.18991210    -0.96900
O153        O  0.89747693  0.14330310  0.12816512    -0.90200
O154        O  0.86261904  0.11886740  0.14675596    -0.93000
C155        C  0.89858809  0.13851382  0.33108061     1.00700
C156        C  0.87882025  0.06977778  0.25161229     1.13700
C157        C  0.95775938  0.13536274  0.22810047     1.04400
O158        O  0.93434622  0.18939939  0.19819926    -0.95200
O159        O  0.91436854  0.18527452  0.13070758    -0.90900
O160        O  0.88023641  0.18644596  0.11935874    -0.84100
C161        C  0.89845804  0.19364969  0.11622328     1.11100
O162        O  0.91336970  0.07394175  0.13237774    -0.97200
Zr163      Zr  0.89629661  0.10708222  0.13328409     1.88900
O164        O  0.86471923  0.14455027  0.07652572    -0.73800
O165        O  0.94525605  0.15114712  0.12706217    -0.53100
O166        O  0.92785195  0.10507182  0.09658148    -0.97700
O167        O  0.87252839  0.08075001  0.11171012    -0.55000
O168        O  0.88708906  0.11827891  0.07041912    -0.74300
C169        C  0.87516855  0.13186204  0.05647259     0.98000
O170        O  0.83928141  0.18029617  0.11973814    -0.63100
O171        O  0.83256669  0.10653292  0.26731737    -0.57900
O172        O  0.82691509  0.15205127  0.15227859    -0.94600
O173        O  0.82195340  0.12760957  0.19734813    -0.93100
O174        O  0.84557076  0.16112944  0.29175479    -0.93400
O175        O  0.85594352  0.19281968  0.25380032    -0.92200
C176        C  0.81548063  0.14163957  0.17500208     1.16900
H177        H  0.87092628  0.12095023  0.28357382     0.32800
H178        H  0.88587731  0.18540417  0.18834451     0.43700
H179        H  0.85260448  0.11350894  0.12928229     0.37200
H180        H  0.93270620  0.11557611  0.17488948     0.33700
H181        H  0.89062492  0.19609358  0.29689485     0.25500
H182        H  0.93783094  0.15209685  0.10268595     0.31400
H183        H  0.92712606  0.11654579  0.07827002     0.37300
H184        H  0.84873434  0.15235567  0.31388121     0.31800
H185        H  0.82569719  0.11989109  0.27107786     0.30600
H186        H  0.82050794  0.08552540  0.18976746     0.32300
H187        H  0.87350808  0.06954842  0.13055572     0.31300
H188        H  0.85401176  0.19620283  0.22666566     0.35300
H189        H  0.84191891  0.19298838  0.13430632     0.28000
H190        H  0.93930865  0.09317280  0.29072819     0.32200
H191        H  0.91815255  0.07194226  0.15874718     0.35100
H192        H  0.82152457  0.09715678  0.25912669     0.27700
H193        H  0.84347699  0.18351408  0.09338523     0.40600
H194        H  0.94682083  0.19130670  0.18260729     0.30600
H195        H  0.91020312  0.18657897  0.27838986     0.38300
H196        H  0.87871514  0.07514388  0.08825396     0.30100
H197        H  0.95409829  0.16345677  0.12750319     0.30200
H198        H  0.94041452  0.08277211  0.25047358     0.30400
Zr199      Zr  0.90745126  0.11424844  0.74462373     2.17500
O200        O  0.92601804  0.08554744  0.77273232    -0.51900
O201        O  0.90304804  0.12175197  0.81205225    -0.75100
O202        O  0.94445314  0.11874487  0.74688777    -0.81900
O203        O  0.85779279  0.08392804  0.73949997    -0.83700
O204        O  0.95354326  0.14668067  0.71243534    -0.79300
O205        O  0.89167880  0.08061235  0.75175238    -0.90900
O206        O  0.88360685  0.15022641  0.81883880    -0.76900
O207        O  0.91054641  0.15064766  0.74582662    -0.86400
O208        O  0.87380837  0.12688305  0.75551015    -0.86100
O209        O  0.92075111  0.12370867  0.68309429    -0.72800
O210        O  0.88727341  0.10165492  0.69286088    -0.85000
Zr211      Zr  0.86812427  0.16090330  0.64322927     2.26400
Zr212      Zr  0.92251083  0.16055935  0.68412632     2.06300
Zr213      Zr  0.85381533  0.11503039  0.70355412     2.10000
Zr214      Zr  0.87691893  0.16323442  0.75599778     1.78800
O215        O  0.83963901  0.08818547  0.66344548    -0.93800
O216        O  0.89992610  0.18763119  0.78618869    -0.41600
O217        O  0.85592236  0.15147736  0.70493137    -0.78200
O218        O  0.88877163  0.17393302  0.69471616    -0.96900
O219        O  0.90195530  0.14851604  0.63260836    -0.90200
O220        O  0.86565720  0.12450060  0.64176446    -0.93000
C221        C  0.89342688  0.13493324  0.83242244     1.00700
C222        C  0.87326828  0.07371158  0.75106897     1.13700
C223        C  0.95785830  0.13115940  0.73340796     1.04400
O224        O  0.93452737  0.18846146  0.72405432    -0.95200
O225        O  0.91960847  0.19079592  0.64336239    -0.90900
O226        O  0.88693014  0.19099541  0.62171223    -0.84100
C227        C  0.90491995  0.19882461  0.62416129     1.11100
O228        O  0.91660242  0.07905626  0.63313843    -0.97200
Zr229      Zr  0.89965034  0.11226253  0.63206676     1.88900
O230        O  0.87033510  0.15215467  0.57575375    -0.73800
O231        O  0.95074557  0.16288952  0.63905042    -0.53100
O232        O  0.93292441  0.11257667  0.60087203    -0.97700
O233        O  0.88079322  0.08520872  0.59973287    -0.55000
O234        O  0.89336588  0.12638498  0.57003114    -0.74300
C235        C  0.88176222  0.14018782  0.55590269     0.98000
O236        O  0.84570752  0.18933009  0.62642717    -0.63100
O237        O  0.82560156  0.11280031  0.74872140    -0.57900
O238        O  0.83038955  0.15803053  0.64576444    -0.94600
O239        O  0.82256382  0.13081499  0.68342670    -0.93100
O240        O  0.84484243  0.16507048  0.79101606    -0.93400
O241        O  0.86038029  0.19662683  0.75345668    -0.92200
C242        C  0.81757226  0.14613169  0.66291067     1.16900
H243        H  0.86788633  0.12159972  0.77862785     0.32800
H244        H  0.88903282  0.18870271  0.69446847     0.43700
H245        H  0.85639082  0.12000619  0.62223243     0.37200
H246        H  0.93402131  0.11774039  0.67867908     0.33700
H247        H  0.89991466  0.19982573  0.76949569     0.25500
H248        H  0.96125112  0.17128217  0.65196348     0.31400
H249        H  0.93442765  0.12668010  0.59091634     0.37300
H250        H  0.83434887  0.16029221  0.77284698     0.31800
H251        H  0.81794416  0.10035736  0.74124967     0.30600
H252        H  0.82568266  0.09287247  0.65698238     0.32300
H253        H  0.87060181  0.09231042  0.58371780     0.31300
H254        H  0.85398900  0.19713504  0.72803368     0.35300
H255        H  0.85052231  0.20117465  0.64150993     0.28000
H256        H  0.93388286  0.09127298  0.79424147     0.32200
H257        H  0.91014709  0.07158693  0.65449329     0.35100
H258        H  0.83190781  0.10926644  0.77336732     0.27700
H259        H  0.84907492  0.19276984  0.59977026     0.40600
H260        H  0.94606876  0.19456011  0.70975325     0.30600
H261        H  0.89262612  0.19207840  0.80940447     0.38300
H262        H  0.87262646  0.07852460  0.61991470     0.30100
H263        H  0.95666692  0.14894845  0.63796561     0.30200
H264        H  0.93638570  0.08125645  0.75381631     0.30400
Zr265      Zr  0.35273972  0.35192030  0.11549491     2.17500
O266        O  0.32865691  0.32832371  0.14565510    -0.51900
O267        O  0.36116552  0.35564372  0.18292576    -0.75100
O268        O  0.36071314  0.31491818  0.10680282    -0.81900
O269        O  0.31512493  0.39771832  0.11753443    -0.83700
O270        O  0.39040102  0.31217688  0.07354999    -0.79300
O271        O  0.31796336  0.36343844  0.12802372    -0.90900
O272        O  0.38403025  0.38146530  0.18996005    -0.76900
O273        O  0.38904240  0.35517652  0.11602420    -0.86400
O274        O  0.35962927  0.38724735  0.12782694    -0.86100
O275        O  0.36339168  0.34253557  0.05253858    -0.72800
O276        O  0.33631448  0.37171975  0.06632998    -0.85000
Zr277      Zr  0.39250438  0.39944336  0.01558637     2.26400
Zr278      Zr  0.39994199  0.34601506  0.05314796     2.06300
Zr279      Zr  0.34465882  0.40696581  0.07806915     2.10000
Zr280      Zr  0.39574610  0.39052934  0.12789645     1.78800
O281        O  0.31583093  0.41839172  0.03998504    -0.93800
O282        O  0.42409743  0.37293224  0.15863948    -0.41600
O283        O  0.38114768  0.41014064  0.07754151    -0.78200
O284        O  0.40804026  0.38092958  0.06719400    -0.96900
O285        O  0.38444643  0.36474321  0.00254361    -0.90200
O286        O  0.35596359  0.39744973  0.01567931    -0.93000
C287        C  0.37181472  0.36800031  0.20334076     1.00700
C288        C  0.30828481  0.38054009  0.13031035     1.13700
C289        C  0.37474092  0.30432609  0.08990077     1.04400
O290        O  0.42814510  0.32963968  0.08644149    -0.95200
O291        O  0.43216926  0.35615389  0.02444033    -0.90900
O292        O  0.42805188  0.38894140  0.00457623    -0.84100
C293        C  0.43906121  0.37288755  0.01012926     1.11100
O294        O  0.31985994  0.33806930  0.00749726    -0.97200
Zr295      Zr  0.34798260  0.36251363  0.00430531     1.88900
O296        O  0.38412295  0.39512095  0.94819948    -0.73800
O297        O  0.40389836  0.32435639  0.99735186    -0.53100
O298        O  0.35138421  0.33196134  0.96510304    -0.97700
O299        O  0.31801243  0.38030519  0.97986552    -0.55000
O300        O  0.35821770  0.37235583  0.94177037    -0.74300
C301        C  0.37178600  0.38431586  0.92803277     0.98000
O302        O  0.41298455  0.42592389  0.98458028    -0.63100
O303        O  0.33853923  0.43162999  0.12873687    -0.57900
O304        O  0.38606819  0.43572787  0.02395763    -0.94600
O305        O  0.35638562  0.44063377  0.05631611    -0.93100
O306        O  0.39177557  0.42372632  0.15848788    -0.93400
O307        O  0.42693147  0.41097742  0.12850818    -0.92200
C308        C  0.37222906  0.44729184  0.03837734     1.16900
H309        H  0.35356187  0.39169968  0.15142165     0.32800
H310        H  0.42247841  0.38325824  0.07006157     0.43700
H311        H  0.35018409  0.40631211  0.99652359     0.37200
H312        H  0.35911641  0.32899558  0.04531973     0.33700
H313        H  0.41817024  0.36013559  0.16900245     0.25500
H314        H  0.40866359  0.33363499  0.97693556     0.31400
H315        H  0.36219137  0.32369758  0.97739015     0.37300
H316        H  0.39757622  0.42189361  0.18418659     0.31800
H317        H  0.35227137  0.43472727  0.13899928     0.30600
H318        H  0.30983607  0.42984332  0.05466471     0.32300
H319        H  0.30623295  0.37470706  0.99419524     0.31300
H320        H  0.42783272  0.41694979  0.10273134     0.35300
H321        H  0.42513674  0.42798337  0.00087253     0.28000
H322        H  0.33683167  0.31967791  0.16302824     0.32200
H323        H  0.31916502  0.33399546  0.03453302     0.35100
H324        H  0.33417693  0.44442280  0.11604385     0.27700
H325        H  0.41835168  0.41962051  0.96103319     0.40600
H326        H  0.42411080  0.32987921  0.11352374     0.30600
H327        H  0.43298100  0.36832918  0.13752198     0.38300
H328        H  0.31627157  0.37499250  0.95376780     0.30100
H329        H  0.41589109  0.31564341  0.00306782     0.30200
H330        H  0.32381002  0.31896419  0.12547823     0.30400
Zr331      Zr  0.35435045  0.35347592  0.61696277     2.17500
O332        O  0.32752776  0.32993122  0.63757024    -0.51900
O333        O  0.36418272  0.35573919  0.68362140    -0.75100
O334        O  0.36441706  0.31715122  0.61381029    -0.81900
O335        O  0.31783241  0.39934364  0.62174849    -0.83700
O336        O  0.39531684  0.31552242  0.58399700    -0.79300
O337        O  0.32148466  0.36614023  0.63992725    -0.90900
O338        O  0.38625969  0.38232631  0.68957841    -0.76900
O339        O  0.39050313  0.35855864  0.61803674    -0.86400
O340        O  0.35992195  0.38917323  0.62685773    -0.86100
O341        O  0.36589093  0.34282444  0.55521289    -0.72800
O342        O  0.33742782  0.37106425  0.56573417    -0.85000
Zr343      Zr  0.39257571  0.40048426  0.51421277     2.26400
Zr344      Zr  0.40218320  0.34845713  0.55624137     2.06300
Zr345      Zr  0.34433579  0.40669297  0.57510621     2.10000
Zr346      Zr  0.39564893  0.39438838  0.62734349     1.78800
O347        O  0.31203759  0.41174090  0.54229667    -0.93800
O348        O  0.42772972  0.38314396  0.65553518    -0.41600
O349        O  0.38060244  0.41238600  0.57511114    -0.78200
O350        O  0.40863190  0.38392488  0.56738253    -0.96900
O351        O  0.38623647  0.36517996  0.50384902    -0.90200
O352        O  0.35626897  0.39629727  0.51376339    -0.93000
C353        C  0.37484145  0.36828004  0.70356337     1.00700
C354        C  0.31214058  0.38347089  0.64059050     1.13700
C355        C  0.38000384  0.30731614  0.60082431     1.04400
O356        O  0.43210685  0.33772424  0.59209609    -0.95200
O357        O  0.43281144  0.35870929  0.52201923    -0.90900
O358        O  0.42834041  0.39148653  0.50228426    -0.84100
C359        C  0.43937653  0.37537190  0.50691049     1.11100
O360        O  0.32243457  0.33571745  0.50943070    -0.97200
Zr361      Zr  0.34999088  0.36078948  0.50476991     1.88900
O362        O  0.38484006  0.39410999  0.44739646    -0.73800
O363        O  0.40687993  0.32308253  0.50632595    -0.53100
O364        O  0.35858185  0.32934904  0.47103196    -0.97700
O365        O  0.31850039  0.37355426  0.47634214    -0.55000
O366        O  0.35941923  0.37073280  0.44172761    -0.74300
C367        C  0.37282264  0.38277713  0.42763327     0.98000
O368        O  0.41698412  0.42401550  0.48481354    -0.63100
O369        O  0.34034962  0.43658390  0.61585616    -0.57900
O370        O  0.38145455  0.43599297  0.51372389    -0.94600
O371        O  0.35022756  0.43853030  0.54175888    -0.93100
O372        O  0.38549232  0.42473045  0.66284200    -0.93400
O373        O  0.42253674  0.42020950  0.62512225    -0.92200
C374        C  0.36540229  0.44602476  0.52329446     1.16900
H375        H  0.35403821  0.39368277  0.65059726     0.32800
H376        H  0.42306884  0.38675466  0.56917006     0.43700
H377        H  0.35011184  0.40443906  0.49395175     0.37200
H378        H  0.36270143  0.32871950  0.54977156     0.33700
H379        H  0.42848026  0.39046698  0.68009148     0.25500
H380        H  0.40868292  0.33112979  0.48273718     0.31400
H381        H  0.35132430  0.33031950  0.44647444     0.37300
H382        H  0.39558079  0.42580092  0.68365518     0.31800
H383        H  0.32563971  0.44009166  0.61447532     0.30600
H384        H  0.30727392  0.42538709  0.55075898     0.32300
H385        H  0.32225340  0.38654057  0.46361101     0.31300
H386        H  0.42221766  0.42544448  0.59876204     0.35300
H387        H  0.40949518  0.43105141  0.46419228     0.28000
H388        H  0.33357371  0.32166549  0.65826222     0.32200
H389        H  0.31782837  0.33326541  0.48307950     0.35100
H390        H  0.34231891  0.43140964  0.64199640     0.27700
H391        H  0.41986811  0.43474800  0.50391503     0.40600
H392        H  0.43966573  0.32846905  0.57480121     0.30600
H393        H  0.42535061  0.36865892  0.66260381     0.38300
H394        H  0.30990255  0.37776044  0.49812449     0.30100
H395        H  0.42052171  0.31708408  0.51124531     0.30200
H396        H  0.32545641  0.32025005  0.61630717     0.30400
Zr397      Zr  0.16623453  0.35108553  0.27821124     2.17500
O398        O  0.19500260  0.33061143  0.25556734    -0.51900
O399        O  0.15556799  0.35196645  0.21160287    -0.75100
O400        O  0.16100621  0.31345022  0.28411358    -0.81900
O401        O  0.20002956  0.40022088  0.27799814    -0.83700
O402        O  0.13288252  0.30843428  0.32104027    -0.79300
O403        O  0.19792072  0.36743709  0.25666547    -0.90900
O404        O  0.12962360  0.37470112  0.20522283    -0.76900
O405        O  0.12974295  0.35123454  0.27880546    -0.86400
O406        O  0.15601401  0.38557293  0.26617381    -0.86100
O407        O  0.15715691  0.34088788  0.34168267    -0.72800
O408        O  0.18102024  0.37215816  0.32735455    -0.85000
Zr409      Zr  0.12282203  0.39542947  0.37922546     2.26400
Zr410      Zr  0.12042086  0.34119049  0.34207648     2.06300
Zr411      Zr  0.16955218  0.40634900  0.31586764     2.10000
Zr412      Zr  0.11978766  0.38591533  0.26734044     1.78800
O413        O  0.19857754  0.42070451  0.34989223    -0.93800
O414        O  0.08912537  0.36906394  0.24355719    -0.41600
O415        O  0.13296190  0.40691819  0.31708403    -0.78200
O416        O  0.10884712  0.37519710  0.32837417    -0.96900
O417        O  0.13428720  0.36156938  0.39195844    -0.90200
O418        O  0.15945744  0.39635599  0.37850582    -0.93000
C419        C  0.14290582  0.36242273  0.19148102     1.00700
C420        C  0.20693748  0.38495341  0.25888940     1.13700
C421        C  0.14826426  0.30181467  0.30214732     1.04400
O422        O  0.09221063  0.32495791  0.30848815    -0.95200
O423        O  0.08870746  0.34756601  0.37592311    -0.90900
O424        O  0.08847810  0.38133597  0.39142369    -0.84100
C425        C  0.07984927  0.36362890  0.38899517     1.11100
O426        O  0.20457892  0.34687464  0.38529735    -0.97200
Zr427      Zr  0.17077390  0.36238313  0.38987752     1.88900
O428        O  0.13058995  0.38977084  0.44644122    -0.73800
O429        O  0.11949708  0.31727498  0.39516158    -0.53100
O430        O  0.17409146  0.32957203  0.42225376    -0.97700
O431        O  0.19556305  0.38443926  0.42140560    -0.55000
O432        O  0.15708305  0.36761642  0.45222767    -0.74300
C433        C  0.14273018  0.37855061  0.46624901     0.98000
O434        O  0.09955611  0.42049412  0.40712333    -0.63100
O435        O  0.17070828  0.43135057  0.26459037    -0.57900
O436        O  0.12786258  0.43260885  0.37458775    -0.94600
O437        O  0.15745724  0.43838641  0.34226459    -0.93100
O438        O  0.12375636  0.41758589  0.23141855    -0.93400
O439        O  0.08957165  0.40766741  0.26874613    -0.92200
C440        C  0.14180467  0.44452823  0.36114912     1.16900
H441        H  0.16122417  0.39033924  0.24206546     0.32800
H442        H  0.09417107  0.37587004  0.32630458     0.43700
H443        H  0.16452902  0.40581879  0.39731850     0.37200
H444        H  0.16260078  0.32761614  0.34807037     0.33700
H445        H  0.08969004  0.37074777  0.21566219     0.25500
H446        H  0.11632703  0.32574853  0.41770472     0.31400
H447        H  0.16026116  0.32663961  0.43237538     0.37300
H448        H  0.13345683  0.41434676  0.21067553     0.31800
H449        H  0.15771581  0.43905081  0.26662215     0.30600
H450        H  0.20044728  0.43453929  0.33889949     0.32300
H451        H  0.20610205  0.38737059  0.40193514     0.31300
H452        H  0.09066460  0.41527346  0.29295886     0.35300
H453        H  0.08743331  0.42080159  0.39033321     0.28000
H454        H  0.18939156  0.32148854  0.23571066     0.32200
H455        H  0.20363191  0.33741553  0.36341933     0.35100
H456        H  0.18138580  0.44125919  0.27228743     0.27700
H457        H  0.09463986  0.41429643  0.43111724     0.40600
H458        H  0.09262047  0.31038620  0.31622860     0.30600
H459        H  0.09151687  0.35427232  0.24778297     0.38300
H460        H  0.20248401  0.37549954  0.44008673     0.30100
H461        H  0.10701981  0.30898145  0.39102593     0.30200
H462        H  0.19881277  0.32145773  0.27681023     0.30400
Zr463      Zr  0.16385573  0.34929039  0.77860724     2.17500
O464        O  0.18997110  0.32506226  0.75771671    -0.51900
O465        O  0.15569212  0.35262163  0.71127454    -0.75100
O466        O  0.15286713  0.31342341  0.78171913    -0.81900
O467        O  0.20468779  0.39173949  0.78203895    -0.83700
O468        O  0.12025481  0.31300746  0.80415084    -0.79300
O469        O  0.19873898  0.35886175  0.76429537    -0.90900
O470        O  0.13336084  0.37888797  0.70411230    -0.76900
O471        O  0.12801235  0.35513888  0.77494608    -0.86400
O472        O  0.15974732  0.38515861  0.76779756    -0.86100
O473        O  0.15092918  0.33880724  0.83958399    -0.72800
O474        O  0.18054533  0.36651272  0.83021105    -0.85000
Zr475      Zr  0.12518602  0.39684470  0.87916407     2.26400
Zr476      Zr  0.11495155  0.34522487  0.83569953     2.06300
Zr477      Zr  0.17510669  0.40221186  0.82055895     2.10000
Zr478      Zr  0.12390945  0.39103066  0.76588480     1.78800
O479        O  0.20352466  0.40928649  0.86307227    -0.93800
O480        O  0.09220983  0.37896862  0.73731280    -0.41600
O481        O  0.13892299  0.40773915  0.81902211    -0.78200
O482        O  0.10933229  0.38091911  0.82499174    -0.96900
O483        O  0.13061126  0.36130514  0.88921638    -0.90200
O484        O  0.16158224  0.39238763  0.88138050    -0.93000
C485        C  0.14487828  0.36479512  0.69083142     1.00700
C486        C  0.21003853  0.37489348  0.76578222     1.13700
C487        C  0.13628032  0.30417340  0.79129756     1.04400
O488        O  0.08431531  0.33664643  0.79989436    -0.95200
O489        O  0.08435046  0.35533039  0.86916113    -0.90900
O490        O  0.08876625  0.38824899  0.88791326    -0.84100
C491        C  0.07764365  0.37214543  0.88315858     1.11100
O492        O  0.19423735  0.33178643  0.88201855    -0.97200
Zr493      Zr  0.16688096  0.35671185  0.89025957     1.88900
O494        O  0.13170950  0.39024793  0.94665898    -0.73800
O495        O  0.10963735  0.31824159  0.88243883    -0.53100
O496        O  0.16322044  0.32544866  0.92730656    -0.97700
O497        O  0.19743209  0.37183663  0.91803213    -0.55000
O498        O  0.15588712  0.36567225  0.95293272    -0.74300
C499        C  0.14285818  0.37819835  0.96677909     0.98000
O500        O  0.10705549  0.42429985  0.91206889    -0.63100
O501        O  0.18491157  0.43040152  0.77893467    -0.57900
O502        O  0.13371302  0.43287232  0.87131225    -0.94600
O503        O  0.16450542  0.43587373  0.84169900    -0.93100
O504        O  0.13393768  0.42218686  0.73266955    -0.93400
O505        O  0.09757989  0.41741476  0.76500935    -0.92200
C506        C  0.14865477  0.44346924  0.85800193     1.16900
H507        H  0.16630362  0.38940077  0.74448252     0.32800
H508        H  0.09498008  0.38402618  0.82216866     0.43700
H509        H  0.16750865  0.40034645  0.90156132     0.37200
H510        H  0.15347256  0.32458308  0.84533811     0.33700
H511        H  0.09206194  0.38513333  0.71164120     0.25500
H512        H  0.09560076  0.31319787  0.87761992     0.31400
H513        H  0.14829156  0.32299157  0.92840144     0.37300
H514        H  0.12893684  0.42032359  0.70640398     0.31800
H515        H  0.19959139  0.43281034  0.78413416     0.30600
H516        H  0.20854899  0.42295402  0.85521621     0.32300
H517        H  0.20780249  0.37134748  0.89754372     0.31300
H518        H  0.09300225  0.41862633  0.79170523     0.35300
H519        H  0.09479131  0.42722769  0.89654715     0.28000
H520        H  0.18345520  0.31618853  0.73844712     0.32200
H521        H  0.19316415  0.32737247  0.85522141     0.35100
H522        H  0.18457029  0.42463849  0.75297351     0.27700
H523        H  0.10165169  0.41805641  0.93565241     0.40600
H524        H  0.07840553  0.32465681  0.81319798     0.30600
H525        H  0.09441630  0.36417302  0.73274294     0.38300
H526        H  0.20216589  0.36162493  0.93683285     0.30100
H527        H  0.10866491  0.32546719  0.90706081     0.30200
H528        H  0.19258872  0.31603586  0.77976680     0.30400
Zr529      Zr  0.09237017  0.61080732  0.38678698     2.17500
O530        O  0.07014585  0.58632865  0.35451790    -0.51900
O531        O  0.09688434  0.61930835  0.31874896    -0.75100
O532        O  0.05595034  0.61901400  0.39252112    -0.81900
O533        O  0.13631122  0.57268818  0.39392613    -0.83700
O534        O  0.05095026  0.64642524  0.43113008    -0.79300
O535        O  0.10211650  0.57441573  0.38369817    -0.90900
O536        O  0.11596789  0.64828806  0.31470139    -0.76900
O537        O  0.09300798  0.64737037  0.39103306    -0.86400
O538        O  0.12677983  0.62042915  0.37261388    -0.86100
O539        O  0.08265096  0.61941744  0.45134789    -0.72800
O540        O  0.11320901  0.59551918  0.43472209    -0.85000
Zr541      Zr  0.13971716  0.64957378  0.48812777     2.26400
Zr542      Zr  0.08440454  0.65625089  0.45539673     2.06300
Zr543      Zr  0.14740115  0.60503755  0.42064312     2.10000
Zr544      Zr  0.12737435  0.65691814  0.37744343     1.78800
O545        O  0.16451250  0.57752430  0.45482442    -0.93800
O546        O  0.10864828  0.68678071  0.35479256    -0.41600
O547        O  0.14884989  0.64150499  0.42409665    -0.78200
O548        O  0.11885346  0.66657550  0.44107336    -0.96900
O549        O  0.10539816  0.64026760  0.50238562    -0.90200
O550        O  0.13890714  0.61319786  0.48507705    -0.93000
C551        C  0.10578001  0.63368530  0.29974144     1.00700
C552        C  0.11909354  0.56442059  0.38544758     1.13700
C553        C  0.04435137  0.63204817  0.40946569     1.04400
O554        O  0.07086716  0.68606499  0.42221947    -0.95200
O555        O  0.09256886  0.68509938  0.49781909    -0.90900
O556        O  0.12616950  0.68143691  0.51209375    -0.84100
C557        C  0.10920027  0.69118879  0.51385080     1.11100
O558        O  0.08676196  0.57127499  0.49232269    -0.97200
Zr559      Zr  0.10427213  0.60406460  0.49825322     1.88900
O560        O  0.13746561  0.63981666  0.55503108    -0.73800
O561        O  0.05999323  0.65751060  0.50767438    -0.53100
O562        O  0.07196043  0.60407458  0.53274392    -0.97700
O563        O  0.12312719  0.57540645  0.52542934    -0.55000
O564        O  0.11225977  0.61624142  0.56123908    -0.74300
C565        C  0.12536379  0.62871523  0.57520776     0.98000
O566        O  0.16655766  0.67276938  0.50970741    -0.63100
O567        O  0.17023803  0.59915010  0.36697821    -0.57900
O568        O  0.17658825  0.64383032  0.48066005    -0.94600
O569        O  0.18033341  0.61967009  0.43484703    -0.93100
O570        O  0.15846776  0.65485611  0.33951359    -0.93400
O571        O  0.14838735  0.68774057  0.37780307    -0.92200
C572        C  0.18753992  0.63300119  0.45786550     1.16900
H573        H  0.13141319  0.61558051  0.34820943     0.32800
H574        H  0.12014841  0.68128545  0.44253617     0.43700
H575        H  0.14843893  0.60724511  0.50283979     0.37200
H576        H  0.06911238  0.61451588  0.45727518     0.33700
H577        H  0.09529652  0.68141308  0.34608385     0.25500
H578        H  0.04793566  0.66483722  0.49751249     0.31400
H579        H  0.07379067  0.59382457  0.55316734     0.37300
H580        H  0.16675182  0.64407831  0.35188852     0.31800
H581        H  0.17941938  0.58802121  0.37553573     0.30600
H582        H  0.17606979  0.58409599  0.46820922     0.32300
H583        H  0.13222417  0.58148212  0.54481144     0.31300
H584        H  0.15014164  0.69119552  0.40493945     0.35300
H585        H  0.16424425  0.68586591  0.49620365     0.28000
H586        H  0.06171603  0.59445274  0.33671626     0.32200
H587        H  0.09137675  0.56562946  0.46768210     0.35100
H588        H  0.16165963  0.59275246  0.34714599     0.27700
H589        H  0.16340543  0.67568379  0.53666229     0.40600
H590        H  0.07517962  0.69810247  0.43725798     0.30600
H591        H  0.10536926  0.69472217  0.37792852     0.38300
H592        H  0.13245550  0.57084320  0.50496061     0.30100
H593        H  0.05535181  0.64318168  0.51093509     0.30200
H594        H  0.06045026  0.58126504  0.37401799     0.30400
Zr595      Zr  0.09646995  0.60724009  0.88752941     2.17500
O596        O  0.07450271  0.58186945  0.85705075    -0.51900
O597        O  0.10088610  0.61689675  0.82083210    -0.75100
O598        O  0.05996213  0.61521386  0.89082498    -0.81900
O599        O  0.14144189  0.56986412  0.89289268    -0.83700
O600        O  0.05434036  0.64250621  0.92937059    -0.79300
O601        O  0.10763613  0.57182440  0.87876443    -0.90900
O602        O  0.12353454  0.64307735  0.81608815    -0.76900
O603        O  0.09754660  0.64372905  0.89126696    -0.86400
O604        O  0.13121834  0.61635962  0.87593244    -0.86100
O605        O  0.08551089  0.61554494  0.95108828    -0.72800
O606        O  0.11633386  0.59083895  0.93573673    -0.85000
Zr607      Zr  0.14147866  0.64499001  0.99303876     2.26400
Zr608      Zr  0.08750878  0.65234514  0.95497261     2.06300
Zr609      Zr  0.15087313  0.60092642  0.92519204     2.10000
Zr610      Zr  0.13240883  0.65268740  0.88036579     1.78800
O611        O  0.16821104  0.57508922  0.96328097    -0.93800
O612        O  0.11585123  0.68305462  0.85455973    -0.41600
O613        O  0.15201812  0.63722746  0.92951925    -0.78200
O614        O  0.12234725  0.66207420  0.94347858    -0.96900
O615        O  0.10680478  0.63559698  0.00377662    -0.90200
O616        O  0.14083480  0.60860486  0.98908661    -0.93000
C617        C  0.11174762  0.62957226  0.80137176     1.00700
C618        C  0.12468346  0.56206429  0.88087394     1.13700
C619        C  0.04806887  0.62808231  0.90744717     1.04400
O620        O  0.07605558  0.68258418  0.92059035    -0.95200
O621        O  0.09542220  0.68200027  0.99532817    -0.90900
O622        O  0.12853914  0.67790564  0.01256865    -0.84100
C623        C  0.11182608  0.68809479  0.01207129     1.11100
O624        O  0.08438446  0.56905572  0.99131921    -0.97200
Zr625      Zr  0.10593460  0.59922660  0.99836280     1.88900
O626        O  0.13603453  0.63514145  0.05998013    -0.73800
O627        O  0.06124128  0.65476032  0.00388053    -0.53100
O628        O  0.07467073  0.59983882  0.03595974    -0.97700
O629        O  0.12312931  0.56782525  0.01786874    -0.55000
O630        O  0.11556068  0.60708511  0.06217776    -0.74300
C631        C  0.12604839  0.62115635  0.07802554     0.98000
O632        O  0.16785841  0.66608166  0.02254961    -0.63100
O633        O  0.17355493  0.59386759  0.87180727    -0.57900
O634        O  0.17853732  0.64096586  0.98365072    -0.94600
O635        O  0.18327925  0.61699769  0.93777637    -0.93100
O636        O  0.16588744  0.64955367  0.85037259    -0.93400
O637        O  0.15268415  0.68390044  0.88444418    -0.92200
C638        C  0.18987264  0.63084894  0.96034006     1.16900
H639        H  0.13617230  0.61128666  0.85185916     0.32800
H640        H  0.12389627  0.67676833  0.94437862     0.43700
H641        H  0.14988059  0.60258423  0.00755891     0.37200
H642        H  0.07183879  0.61073146  0.95615237     0.33700
H643        H  0.12248051  0.68526466  0.82960307     0.25500
H644        H  0.06883433  0.65538280  0.02812382     0.31400
H645        H  0.06931462  0.61391424  0.03287364     0.37300
H646        H  0.16311795  0.64598353  0.82358809     0.31800
H647        H  0.17646646  0.60744747  0.86051112     0.30600
H648        H  0.16179457  0.56191707  0.95612232     0.32300
H649        H  0.13519201  0.57222683  0.03268569     0.31300
H650        H  0.16053671  0.68239781  0.90827144     0.35300
H651        H  0.16776101  0.67927154  0.00864527     0.28000
H652        H  0.06610743  0.58942963  0.83836336     0.32200
H653        H  0.08341637  0.56693096  0.96356916     0.35100
H654        H  0.18666591  0.58954015  0.88327909     0.27700
H655        H  0.16265621  0.66938132  0.04823090     0.40600
H656        H  0.07141751  0.67738496  0.89567326     0.30600
H657        H  0.10179746  0.67858668  0.84826722     0.38300
H658        H  0.12887205  0.56209690  0.99413457     0.30100
H659        H  0.05534787  0.66862622  0.00078452     0.30200
H660        H  0.06477252  0.57718833  0.87682089     0.30400
Zr661      Zr  0.09071955  0.88150540  0.22634810     2.17500
O662        O  0.06936975  0.90794479  0.25530210    -0.51900
O663        O  0.09421743  0.87329900  0.29343804    -0.75100
O664        O  0.05388104  0.87443488  0.22436890    -0.81900
O665        O  0.13741586  0.91699924  0.22285836    -0.83700
O666        O  0.04916458  0.84474862  0.19218995    -0.79300
O667        O  0.10307418  0.91652226  0.23315219    -0.90900
O668        O  0.11470369  0.84553966  0.30020812    -0.76900
O669        O  0.09063156  0.84496328  0.22521857    -0.86400
O670        O  0.12491207  0.87108576  0.24011220    -0.86100
O671        O  0.08000289  0.87263688  0.16318356    -0.72800
O672        O  0.11215112  0.89618780  0.17830393    -0.85000
Zr673      Zr  0.13593876  0.83985842  0.12568145     2.26400
Zr674      Zr  0.08106908  0.83593873  0.16190419     2.06300
Zr675      Zr  0.14610870  0.88507548  0.19160474     2.10000
Zr676      Zr  0.12492029  0.83466113  0.23755811     1.78800
O677        O  0.16464994  0.91101066  0.15567986    -0.93800
O678        O  0.10717846  0.80525047  0.26462760    -0.41600
O679        O  0.14611227  0.84863094  0.18896737    -0.78200
O680        O  0.11514502  0.82453503  0.17489165    -0.96900
O681        O  0.10182870  0.85053431  0.11278510    -0.90200
O682        O  0.13647270  0.87643902  0.12792949    -0.93000
C683        C  0.10387978  0.86017351  0.31375664     1.00700
C684        C  0.12056230  0.92552269  0.23290883     1.13700
C685        C  0.04254322  0.85989400  0.21171151     1.04400
O686        O  0.07067140  0.80411978  0.19265037    -0.95200
O687        O  0.08629449  0.80757428  0.11898689    -0.90900
O688        O  0.12028436  0.80757512  0.10567187    -0.84100
C689        C  0.10233443  0.79952284  0.10436646     1.11100
O690        O  0.08166676  0.91784789  0.12292124    -0.97200
Zr691      Zr  0.10211864  0.88691416  0.11592726     1.88900
O692        O  0.13496170  0.85053666  0.05891206    -0.73800
O693        O  0.05280466  0.83590545  0.11690394    -0.53100
O694        O  0.07148147  0.88573871  0.07684195    -0.97700
O695        O  0.12026145  0.91690046  0.09202448    -0.55000
O696        O  0.11247999  0.87675334  0.05347461    -0.74300
C697        C  0.12454599  0.86342604  0.03920478     0.98000
O698        O  0.16079476  0.81550542  0.10045365    -0.63100
O699        O  0.16775095  0.89052183  0.24692121    -0.57900
O700        O  0.17302565  0.84288278  0.13592064    -0.94600
O701        O  0.17840057  0.86822784  0.17905479    -0.93100
O702        O  0.15693612  0.83719395  0.27242293    -0.93400
O703        O  0.14531486  0.80353354  0.23334383    -0.92200
C704        C  0.18466232  0.85364249  0.15762962     1.16900
H705        H  0.12971379  0.87630375  0.26411993     0.32800
H706        H  0.11583634  0.80978978  0.17432125     0.43700
H707        H  0.14599137  0.88199674  0.10962061     0.37200
H708        H  0.06639979  0.87757492  0.15791466     0.33700
H709        H  0.09353354  0.81050772  0.27196270     0.25500
H710        H  0.04731114  0.85002910  0.11753500     0.31400
H711        H  0.07398910  0.89584642  0.05639535     0.37300
H712        H  0.15399595  0.83100428  0.29749692     0.31800
H713        H  0.17180480  0.87661582  0.25518397     0.30600
H714        H  0.17716189  0.91363017  0.17068066     0.32300
H715        H  0.13074818  0.91151542  0.07436315     0.31300
H716        H  0.15385049  0.80548616  0.21037565     0.35300
H717        H  0.15907150  0.80285559  0.11565284     0.28000
H718        H  0.06109924  0.90099607  0.27505687     0.32200
H719        H  0.08019596  0.91970055  0.15067712     0.35100
H720        H  0.18048061  0.89669601  0.23683635     0.27700
H721        H  0.15591878  0.81190863  0.07472671     0.40600
H722        H  0.05716708  0.80691704  0.20426527     0.30600
H723        H  0.10446845  0.79610736  0.24281305     0.38300
H724        H  0.12814618  0.92197693  0.11404455     0.30100
H725        H  0.05935695  0.83478658  0.09164640     0.30200
H726        H  0.05947117  0.91222862  0.23560618     0.30400
Zr727      Zr  0.09273019  0.88702260  0.72783904     2.17500
O728        O  0.07398180  0.91279057  0.76412034    -0.51900
O729        O  0.09735718  0.87802589  0.79513210    -0.75100
O730        O  0.05549097  0.88218246  0.72573425    -0.81900
O731        O  0.13985385  0.92221199  0.71361837    -0.83700
O732        O  0.04809403  0.85273495  0.69436771    -0.79300
O733        O  0.10631422  0.92206643  0.73051863    -0.90900
O734        O  0.11832707  0.85057110  0.80042641    -0.76900
O735        O  0.09144163  0.85050266  0.72753613    -0.86400
O736        O  0.12691433  0.87585087  0.73821362    -0.86100
O737        O  0.08023354  0.87767926  0.66579274    -0.72800
O738        O  0.11253585  0.90042199  0.67597858    -0.85000
Zr739      Zr  0.13413601  0.84246130  0.62511549     2.26400
Zr740      Zr  0.07977046  0.84088976  0.66548012     2.06300
Zr741      Zr  0.14664700  0.88883788  0.68648757     2.10000
Zr742      Zr  0.12575086  0.83936028  0.73718347     1.78800
O743        O  0.16492063  0.91361829  0.64741708    -0.93800
O744        O  0.10648732  0.81130674  0.76568010    -0.41600
O745        O  0.14622417  0.85226577  0.68651317    -0.78200
O746        O  0.11388919  0.82869087  0.67648937    -0.96900
O747        O  0.09997726  0.85362609  0.61380737    -0.90200
O748        O  0.13532037  0.87899978  0.62445997    -0.93000
C749        C  0.10758527  0.86494221  0.81480293     1.00700
C750        C  0.12369789  0.93111114  0.72610177     1.13700
C751        C  0.04278753  0.86874773  0.71309768     1.04400
O752        O  0.06599807  0.81068621  0.69728651    -0.95200
O753        O  0.08435735  0.81031919  0.62665598    -0.90900
O754        O  0.11794064  0.80975451  0.60993471    -0.84100
C755        C  0.09998866  0.80170213  0.61128265     1.11100
O756        O  0.08435805  0.92332740  0.61224195    -0.97200
Zr757      Zr  0.10096656  0.88999966  0.61471300     1.88900
O758        O  0.13089917  0.85144375  0.55824870    -0.73800
O759        O  0.05302551  0.84316961  0.61769279    -0.53100
O760        O  0.06689082  0.89052234  0.58685518    -0.97700
O761        O  0.12032050  0.91732487  0.58406835    -0.55000
O762        O  0.10685820  0.87616389  0.55232229    -0.74300
C763        C  0.11909454  0.86287425  0.53831757     0.98000
O764        O  0.15803321  0.81815299  0.59672366    -0.63100
O765        O  0.16943243  0.89402888  0.74023895    -0.57900
O766        O  0.17157074  0.84515407  0.63216146    -0.94600
O767        O  0.17853720  0.87254247  0.66992789    -0.93100
O768        O  0.15893894  0.84026477  0.76835008    -0.93400
O769        O  0.14374596  0.80676188  0.73392366    -0.92200
C770        C  0.18397136  0.85695084  0.65031723     1.16900
H771        H  0.13245424  0.88117187  0.76162371     0.32800
H772        H  0.11414048  0.81393190  0.67732172     0.43700
H773        H  0.14450895  0.88390165  0.60495757     0.37200
H774        H  0.06684767  0.88320122  0.66089414     0.33700
H775        H  0.11204962  0.80993377  0.79165834     0.25500
H776        H  0.05986779  0.83967096  0.59346851     0.31400
H777        H  0.06619059  0.87802102  0.57104259     0.37300
H778        H  0.15675721  0.83325512  0.79294493     0.31800
H779        H  0.17303854  0.88004733  0.74878386     0.30600
H780        H  0.17559396  0.91927794  0.66431474     0.32300
H781        H  0.12908994  0.91045919  0.56500976     0.31300
H782        H  0.15006826  0.80663027  0.70836959     0.35300
H783        H  0.15726301  0.80566361  0.61262210     0.28000
H784        H  0.06512818  0.90512074  0.78199886     0.32200
H785        H  0.08581218  0.92890773  0.63820731     0.35100
H786        H  0.18222211  0.89951865  0.72910580     0.27700
H787        H  0.15194601  0.81417659  0.57210415     0.40600
H788        H  0.05204859  0.81444055  0.70570208     0.30600
H789        H  0.09249108  0.81672305  0.76942632     0.38300
H790        H  0.12992681  0.92221615  0.60374800     0.30100
H791        H  0.04393907  0.83137065  0.62298707     0.30200
H792        H  0.06445362  0.91931266  0.74596845     0.30400
Zr793      Zr  0.65059613  0.65462297  0.12140740     2.17500
O794        O  0.67753621  0.67772039  0.14313135    -0.51900
O795        O  0.64085111  0.65324331  0.18880647    -0.75100
O796        O  0.64356183  0.69163260  0.11169335    -0.81900
O797        O  0.68610141  0.60743294  0.13092646    -0.83700
O798        O  0.61447954  0.69376591  0.07715871    -0.79300
O799        O  0.68345964  0.64162538  0.14209615    -0.90900
O800        O  0.61580819  0.62947667  0.19548207    -0.76900
O801        O  0.61418458  0.65324451  0.11837263    -0.86400
O802        O  0.64150151  0.62013511  0.13657646    -0.86100
O803        O  0.64287160  0.66257866  0.05636037    -0.72800
O804        O  0.66722289  0.63253679  0.07583077    -0.85000
Zr805      Zr  0.61155002  0.60590496  0.02244529     2.26400
Zr806      Zr  0.60629651  0.66063393  0.05330932     2.06300
Zr807      Zr  0.65691151  0.59816686  0.09058158     2.10000
Zr808      Zr  0.60526599  0.61872730  0.13327269     1.78800
O809        O  0.68684532  0.58381109  0.05921777    -0.93800
O810        O  0.57567339  0.63673082  0.15890198    -0.41600
O811        O  0.62038647  0.59697932  0.08655427    -0.78200
O812        O  0.59530755  0.62692139  0.07002432    -0.96900
O813        O  0.62207504  0.63956540  0.00652638    -0.90200
O814        O  0.64814978  0.60590244  0.02588376    -0.93000
C815        C  0.62897068  0.64192629  0.20918370     1.00700
C816        C  0.69282580  0.62439897  0.14482603     1.13700
C817        C  0.62964460  0.70193174  0.09412643     1.04400
O818        O  0.57559743  0.67681140  0.07849399    -0.95200
O819        O  0.57699632  0.65271127  0.01433533    -0.90900
O820        O  0.57754205  0.61834831  0.00481008    -0.84100
C821        C  0.56886721  0.63598766  0.00283641     1.11100
O822        O  0.68968654  0.66023864  0.01242235    -0.97200
Zr823      Zr  0.65838305  0.64000168  0.01147288     1.88900
O824        O  0.62044658  0.60917149  0.95492330    -0.73800
O825        O  0.60830170  0.68428392  0.99989658    -0.53100
O826        O  0.66017430  0.67039736  0.97151644    -0.97700
O827        O  0.68643358  0.61824157  0.99023229    -0.55000
O828        O  0.64680031  0.63145224  0.94871406    -0.74300
C829        C  0.63286364  0.61997880  0.93474639     0.98000
O830        O  0.58991340  0.57885768  0.99655388    -0.63100
O831        O  0.65781485  0.57341126  0.14236172    -0.57900
O832        O  0.61666588  0.56952450  0.03357432    -0.94600
O833        O  0.64443411  0.56447614  0.07109894    -0.93100
O834        O  0.60775533  0.58686506  0.16890971    -0.93400
O835        O  0.57415785  0.59819881  0.13281708    -0.92200
C836        C  0.62926977  0.55788457  0.05129767     1.16900
H837        H  0.64661377  0.61616866  0.16116750     0.32800
H838        H  0.58059538  0.62592848  0.07026249     0.43700
H839        H  0.65392834  0.59606872  0.00847269     0.37200
H840        H  0.64765354  0.67601461  0.04940223     0.33700
H841        H  0.58126020  0.64947145  0.17003341     0.25500
H842        H  0.60547396  0.67583952  0.97718368     0.31400
H843        H  0.64736648  0.67794436  0.97680822     0.37300
H844        H  0.62042495  0.58820331  0.18402610     0.31800
H845        H  0.67055967  0.56553775  0.13821929     0.30600
H846        H  0.69228985  0.57368372  0.07750422     0.32300
H847        H  0.69737269  0.62017947  0.00927343     0.31300
H848        H  0.57321663  0.59284927  0.10659862     0.35300
H849        H  0.57735180  0.57884613  0.01232329     0.28000
H850        H  0.67108100  0.68698948  0.16188331     0.32200
H851        H  0.69021315  0.66605129  0.03833753     0.35100
H852        H  0.66045007  0.58149806  0.16558405     0.27700
H853        H  0.58546668  0.58379348  0.97132190     0.40600
H854        H  0.57270712  0.68824255  0.06082596     0.30600
H855        H  0.56797739  0.64137540  0.13632803     0.38300
H856        H  0.69168619  0.62496229  0.96698014     0.30100
H857        H  0.59613216  0.69318863  0.00252444     0.30200
H858        H  0.68117068  0.68650158  0.12120755     0.30400
Zr859      Zr  0.65153873  0.65309682  0.62210187     2.17500
O860        O  0.67676438  0.67868000  0.64118593    -0.51900
O861        O  0.64265308  0.64953977  0.68952564    -0.75100
O862        O  0.63955935  0.68883565  0.61870769    -0.81900
O863        O  0.69187444  0.61011073  0.62467504    -0.83700
O864        O  0.61234847  0.69030337  0.57860848    -0.79300
O865        O  0.68557244  0.64292113  0.64261306    -0.90900
O866        O  0.62036610  0.62312961  0.69567790    -0.76900
O867        O  0.61548320  0.64773712  0.62156682    -0.86400
O868        O  0.64675706  0.61746660  0.63365543    -0.86100
O869        O  0.64103352  0.66192544  0.55878885    -0.72800
O870        O  0.66950816  0.63536286  0.57212778    -0.85000
Zr871      Zr  0.61567905  0.60312477  0.52078251     2.26400
Zr872      Zr  0.60476230  0.65607680  0.55829327     2.06300
Zr873      Zr  0.66375452  0.59982714  0.58347826     2.10000
Zr874      Zr  0.61087122  0.61205725  0.63302673     1.78800
O875        O  0.69405345  0.59442551  0.54450089    -0.93800
O876        O  0.57956888  0.62766720  0.65715486    -0.41600
O877        O  0.62759759  0.59360910  0.58309828    -0.78200
O878        O  0.59841921  0.62068866  0.57180616    -0.96900
O879        O  0.62154799  0.63835858  0.50783041    -0.90200
O880        O  0.65195216  0.60800683  0.52095733    -0.93000
C881        C  0.63197439  0.63697729  0.70964603     1.00700
C882        C  0.69675290  0.62673177  0.64200867     1.13700
C883        C  0.62603172  0.69864198  0.59938939     1.04400
O884        O  0.57526471  0.66807524  0.59413526    -0.95200
O885        O  0.57455677  0.64471252  0.52439484    -0.90900
O886        O  0.57958875  0.61141044  0.50840021    -0.84100
C887        C  0.56833185  0.62756144  0.51085872     1.11100
O888        O  0.68570115  0.66798403  0.51118126    -0.97200
Zr889      Zr  0.65766365  0.64340353  0.50957483     1.88900
O890        O  0.62255190  0.60918595  0.45310719    -0.73800
O891        O  0.59954864  0.68038586  0.50669877    -0.53100
O892        O  0.65254941  0.67526508  0.47484608    -0.97700
O893        O  0.68855163  0.62825338  0.48254356    -0.55000
O894        O  0.64634534  0.63417935  0.44704939    -0.74300
C895        C  0.63351087  0.62151044  0.43304720     0.98000
O896        O  0.59781284  0.57481306  0.49007743    -0.63100
O897        O  0.67225616  0.57364818  0.63017591    -0.57900
O898        O  0.62606750  0.56739578  0.52828600    -0.94600
O899        O  0.65689599  0.56621282  0.55795608    -0.93100
O900        O  0.61563838  0.58138090  0.67124929    -0.93400
O901        O  0.58368560  0.58659013  0.63005798    -0.92200
C902        C  0.64182109  0.55776096  0.54082485     1.16900
H903        H  0.65271119  0.61332885  0.65750614     0.32800
H904        H  0.58400876  0.61771761  0.57377630     0.43700
H905        H  0.65832414  0.59941845  0.50207301     0.37200
H906        H  0.64447384  0.67594807  0.55287290     0.33700
H907        H  0.57452942  0.61806130  0.67680999     0.25500
H908        H  0.61352207  0.68424366  0.49852981     0.31400
H909        H  0.65910681  0.67304594  0.44983218     0.37300
H910        H  0.63065125  0.57985446  0.67335982     0.31800
H911        H  0.66001998  0.56475449  0.63187279     0.30600
H912        H  0.70354569  0.58667735  0.56096736     0.32300
H913        H  0.69310955  0.63811595  0.46292138     0.31300
H914        H  0.58510656  0.58037048  0.60457138     0.35300
H915        H  0.58565855  0.57201413  0.50608249     0.28000
H916        H  0.67027641  0.68694223  0.66145790     0.32200
H917        H  0.69398788  0.66393098  0.53341783     0.35100
H918        H  0.68281410  0.56505356  0.61781853     0.27700
H919        H  0.59224943  0.58051245  0.46619819     0.40600
H920        H  0.56878465  0.67839446  0.57744809     0.30600
H921        H  0.58414116  0.63982309  0.67162446     0.38300
H922        H  0.68386579  0.61625236  0.46779583     0.30100
H923        H  0.59413545  0.67221229  0.48531498     0.30200
H924        H  0.67834501  0.68808325  0.61931654     0.30400
Zr925      Zr  0.83957739  0.64485892  0.27406826     2.17500
O926        O  0.81473534  0.66500327  0.23837870    -0.51900
O927        O  0.85012217  0.64019186  0.20789167    -0.75100
O928        O  0.84451936  0.68219821  0.28020218    -0.81900
O929        O  0.80563712  0.59658677  0.27704255    -0.83700
O930        O  0.87775402  0.68452976  0.29519693    -0.79300
O931        O  0.80602319  0.63039262  0.26172089    -0.90900
O932        O  0.87588543  0.61708316  0.20455230    -0.76900
O933        O  0.87594851  0.64552241  0.27725903    -0.86400
O934        O  0.85026253  0.61012595  0.26581487    -0.86100
O935        O  0.84697630  0.65764673  0.33697336    -0.72800
O936        O  0.82389274  0.62491740  0.32379616    -0.85000
Zr937      Zr  0.88027167  0.60473141  0.38309510     2.26400
Zr938      Zr  0.88362891  0.65738568  0.34026865     2.06300
Zr939      Zr  0.83587793  0.59047901  0.31669893     2.10000
Zr940      Zr  0.88652864  0.61098386  0.26934694     1.78800
O941        O  0.80759968  0.57700299  0.35421678    -0.93800
O942        O  0.91449270  0.63240275  0.24634806    -0.41600
O943        O  0.87241159  0.59159965  0.32092616    -0.78200
O944        O  0.89572383  0.62311048  0.33080313    -0.96900
O945        O  0.86840596  0.63876579  0.39144035    -0.90200
O946        O  0.84384534  0.60284436  0.37912654    -0.93000
C947        C  0.86246107  0.62866568  0.18907875     1.00700
C948        C  0.79758772  0.61260740  0.26176562     1.13700
C949        C  0.86044642  0.69282123  0.28870723     1.04400
O950        O  0.91424158  0.67704107  0.32498601    -0.95200
O951        O  0.91432534  0.65199884  0.37765103    -0.90900
O952        O  0.91427787  0.61860984  0.39569600    -0.84100
C953        C  0.92286962  0.63623375  0.39243513     1.11100
O954        O  0.80142619  0.65782198  0.37695569    -0.97200
Zr955      Zr  0.83206263  0.63717531  0.38579332     1.88900
O956        O  0.87054740  0.61232958  0.44935240    -0.73800
O957        O  0.87577988  0.68377348  0.38688210    -0.53100
O958        O  0.83189520  0.66944783  0.42044357    -0.97700
O959        O  0.80172314  0.61869581  0.40723853    -0.55000
O960        O  0.84018310  0.62908622  0.45054772    -0.74300
C961        C  0.85551733  0.62084640  0.46698411     0.98000
O962        O  0.90073320  0.58094746  0.42061474    -0.63100
O963        O  0.83378671  0.56259149  0.27090449    -0.57900
O964        O  0.87769527  0.56759298  0.37795108    -0.94600
O965        O  0.85100565  0.55863943  0.34032810    -0.93100
O966        O  0.88822023  0.57677779  0.24208711    -0.93400
O967        O  0.91950903  0.59369100  0.26816767    -0.92200
C968        C  0.86638317  0.55416126  0.36153851     1.16900
H969        H  0.84542748  0.60449314  0.24219697     0.32800
H970        H  0.91043494  0.62245331  0.33005706     0.43700
H971        H  0.83844471  0.59390890  0.39857260     0.37200
H972        H  0.84172799  0.67121027  0.34200663     0.33700
H973        H  0.90818699  0.64174333  0.22759068     0.25500
H974        H  0.88894150  0.68649509  0.39975621     0.31400
H975        H  0.84491601  0.66956968  0.43471697     0.37300
H976        H  0.87410057  0.57389188  0.23354506     0.31800
H977        H  0.82052546  0.55585187  0.27629442     0.30600
H978        H  0.80863822  0.56194872  0.35148842     0.32300
H979        H  0.79521057  0.62784653  0.42611053     0.31300
H980        H  0.92219199  0.59003375  0.29495793     0.35300
H981        H  0.91387043  0.57946185  0.40683926     0.28000
H982        H  0.82281109  0.67414222  0.22164738     0.32200
H983        H  0.80012180  0.65927245  0.34910286     0.35100
H984        H  0.83186103  0.56926202  0.24594787     0.27700
H985        H  0.90426900  0.58842911  0.44412879     0.40600
H986        H  0.91352169  0.68934005  0.34136331     0.30600
H987        H  0.91805263  0.64135762  0.26801709     0.38300
H988        H  0.80691543  0.60709934  0.42251554     0.30100
H989        H  0.87312739  0.69629544  0.37188164     0.30200
H990        H  0.80810351  0.67418987  0.25706155     0.30400
Zr991      Zr  0.84416955  0.64542813  0.77630236     2.17500
O992        O  0.81680635  0.66755931  0.75308645    -0.51900
O993        O  0.85545235  0.64431415  0.70928314    -0.75100
O994        O  0.85034871  0.68250430  0.78458479    -0.81900
O995        O  0.80996288  0.59763951  0.76870706    -0.83700
O996        O  0.87516042  0.68689416  0.82890762    -0.79300
O997        O  0.81151375  0.63163843  0.75534810    -0.90900
O998        O  0.88402510  0.62469548  0.70431959    -0.76900
O999        O  0.88048889  0.64560580  0.78137549    -0.86400
O1000       O  0.85499641  0.61157204  0.76094244    -0.86100
O1001       O  0.85074205  0.65363058  0.84190458    -0.72800
O1002       O  0.82807830  0.62309031  0.82215750    -0.85000
Zr1003     Zr  0.88415564  0.59790179  0.87658481     2.26400
Zr1004     Zr  0.88740209  0.65348988  0.84663590     2.06300
Zr1005     Zr  0.83979288  0.58943220  0.80692157     2.10000
Zr1006     Zr  0.89119162  0.61158194  0.76654145     1.78800
O1007       O  0.80981260  0.57181264  0.83188365    -0.93800
O1008       O  0.92151577  0.63069845  0.74733084    -0.41600
O1009       O  0.87624688  0.58889036  0.81211188    -0.78200
O1010       O  0.89962275  0.62010601  0.82996442    -0.96900
O1011       O  0.87242920  0.63124172  0.89280757    -0.90200
O1012       O  0.84768361  0.59707727  0.87184862    -0.93000
C1013       C  0.86991493  0.63576688  0.68998428     1.00700
C1014       C  0.80268710  0.61406522  0.75387773     1.13700
C1015       C  0.86145577  0.69377467  0.80639516     1.04400
O1016       O  0.91512857  0.67166282  0.81501567    -0.95200
O1017       O  0.91799876  0.64567773  0.88274761    -0.90900
O1018       O  0.91771465  0.61145387  0.89492121    -0.84100
C1019       C  0.92636791  0.62917131  0.89501547     1.11100
O1020       O  0.80393754  0.64913061  0.88756113    -0.97200
Zr1021     Zr  0.83619947  0.63054517  0.88699645     1.88900
O1022       O  0.87521436  0.60055715  0.94407162    -0.73800
O1023       O  0.88853562  0.67528014  0.90269705    -0.53100
O1024       O  0.83559521  0.66150904  0.92550752    -0.97700
O1025       O  0.80717490  0.60975539  0.90722698    -0.55000
O1026       O  0.84713652  0.62067223  0.94982638    -0.74300
C1027       C  0.86174188  0.61011285  0.96403282     0.98000
O1028       O  0.90830333  0.57123603  0.89509037    -0.63100
O1029       O  0.84350370  0.56631991  0.75302439    -0.57900
O1030       O  0.87701207  0.56127968  0.87099972    -0.94600
O1031       O  0.84946423  0.55664594  0.83263574    -0.93100
O1032       O  0.89016065  0.58088600  0.72729804    -0.93400
O1033       O  0.92192469  0.59066928  0.77123103    -0.92200
C1034       C  0.86370001  0.54995085  0.85424956     1.16900
H1035       H  0.85062662  0.60758018  0.73585224     0.32800
H1036       H  0.91435201  0.61958298  0.82965435     0.43700
H1037       H  0.84199132  0.58693942  0.88882710     0.37200
H1038       H  0.84491321  0.66669230  0.84862966     0.33700
H1039       H  0.92627228  0.62389395  0.72381583     0.25500
H1040       H  0.89853411  0.68614603  0.89628467     0.31400
H1041       H  0.84892788  0.66165449  0.93875307     0.37300
H1042       H  0.88111047  0.58434276  0.70575747     0.31800
H1043       H  0.83505984  0.55423797  0.75962278     0.30600
H1044       H  0.80593386  0.56196799  0.81178472     0.32300
H1045       H  0.81291423  0.59925087  0.92442811     0.31300
H1046       H  0.92159724  0.58506887  0.79734082     0.35300
H1047       H  0.92035988  0.57304843  0.87835513     0.28000
H1048       H  0.82321489  0.67717258  0.73485411     0.32200
H1049       H  0.80012324  0.65033940  0.86048836     0.35100
H1050       H  0.83603574  0.57293784  0.73192941     0.27700
H1051       H  0.91309603  0.57496874  0.92080217     0.40600
H1052       H  0.92496389  0.66082311  0.80775853     0.30600
H1053       H  0.91630978  0.64415101  0.73870485     0.38300
H1054       H  0.80305013  0.60209832  0.88425915     0.30100
H1055       H  0.87516579  0.68237823  0.90329008     0.30200
H1056       H  0.81250206  0.67608010  0.77492845     0.30400
Zr1057     Zr  0.65178809  0.86391447  0.01578365     2.17500
O1058       O  0.67669977  0.84041237  0.98793427    -0.51900
O1059       O  0.64373864  0.86838193  0.94829500    -0.75100
O1060       O  0.64181582  0.82759141  0.01824898    -0.81900
O1061       O  0.69227689  0.90648853  0.02644707    -0.83700
O1062       O  0.60879724  0.82608705  0.03825834    -0.79300
O1063       O  0.68727497  0.87375043  0.00650345    -0.90900
O1064       O  0.62065757  0.89400965  0.94178304    -0.76900
O1065       O  0.61614448  0.87049714  0.00948028    -0.86400
O1066       O  0.64811373  0.90005224  0.00789050    -0.86100
O1067       O  0.63756618  0.85213289  0.07502155    -0.72800
O1068       O  0.66676336  0.87963189  0.07116942    -0.85000
Zr1069     Zr  0.61038574  0.90981551  0.11599940     2.26400
Zr1070     Zr  0.60172963  0.85865462  0.06796667     2.06300
Zr1071     Zr  0.66197135  0.91568495  0.06334496     2.10000
Zr1072     Zr  0.61255383  0.90680730  0.00354443     1.78800
O1073       O  0.69239936  0.92342565  0.10042876    -0.93800
O1074       O  0.57929813  0.90016271  0.97514623    -0.41600
O1075       O  0.62605020  0.92278066  0.05890477    -0.78200
O1076       O  0.59650866  0.89462518  0.05969502    -0.96900
O1077       O  0.61514311  0.87403800  0.12414289    -0.90200
O1078       O  0.64652708  0.90452867  0.12173127    -0.93000
C1079       C  0.63244929  0.88027789  0.92810321     1.00700
C1080       C  0.69825558  0.88994026  0.01006071     1.13700
C1081       C  0.62541465  0.81772583  0.02686275     1.04400
O1082       O  0.57321558  0.85118188  0.02586957    -0.95200
O1083       O  0.57073774  0.86784470  0.10099459    -0.90900
O1084       O  0.57438007  0.89993773  0.12482821    -0.84100
C1085       C  0.56369775  0.88379617  0.11769992     1.11100
O1086       O  0.68006668  0.84546114  0.13104873    -0.97200
Zr1087     Zr  0.65103028  0.86877836  0.12934056     1.88900
O1088       O  0.61440041  0.90316364  0.18360120    -0.73800
O1089       O  0.59371396  0.83163853  0.11334481    -0.53100
O1090       O  0.64204358  0.83572104  0.15682230    -0.97700
O1091       O  0.67977185  0.88122116  0.16681282    -0.55000
O1092       O  0.63599083  0.87628806  0.19004553    -0.74300
C1093       C  0.62369302  0.88963777  0.20362396     0.98000
O1094       O  0.58374925  0.93427337  0.13336600    -0.63100
O1095       O  0.66770218  0.94385391  0.01924764    -0.57900
O1096       O  0.62331247  0.94459382  0.12359733    -0.94600
O1097       O  0.65512731  0.94696331  0.09774808    -0.93100
O1098       O  0.62626175  0.93602140  0.96875943    -0.93400
O1099       O  0.58916947  0.93580669  0.00619026    -0.92200
C1100       C  0.63984403  0.95442270  0.11590577     1.16900
H1101       H  0.65524525  0.90474826  0.98546510     0.32800
H1102       H  0.58218976  0.89773006  0.05668745     0.43700
H1103       H  0.65196834  0.91195843  0.14312231     0.37200
H1104       H  0.64021735  0.83796166  0.08077654     0.33700
H1105       H  0.58051742  0.90520481  0.94874149     0.25500
H1106       H  0.58385635  0.82263866  0.10009052     0.31400
H1107       H  0.64905016  0.83542174  0.18168768     0.37300
H1108       H  0.61949086  0.93551872  0.94368388     0.31800
H1109       H  0.65453316  0.95131372  0.01858031     0.30600
H1110       H  0.69541268  0.93800227  0.09500370     0.32300
H1111       H  0.67365432  0.88891355  0.18819880     0.31300
H1112       H  0.59583321  0.94576719  0.02336482     0.35300
H1113       H  0.58837562  0.94075685  0.15724318     0.28000
H1114       H  0.66934995  0.83282788  0.96781409     0.32200
H1115       H  0.68659602  0.84687548  0.10581343     0.35100
H1116       H  0.67714498  0.95322632  0.03265413     0.27700
H1117       H  0.58433422  0.94525535  0.11400962     0.40600
H1118       H  0.56428365  0.84183077  0.04057104     0.30600
H1119       H  0.57862164  0.88507573  0.97270555     0.38300
H1120       H  0.68629729  0.89183979  0.15081200     0.30100
H1121       H  0.60636938  0.82338386  0.11520432     0.30200
H1122       H  0.67980655  0.83010304  0.00772355     0.30400
Zr1123     Zr  0.64653787  0.86293954  0.51459841     2.17500
O1124       O  0.67281392  0.83952708  0.49131883    -0.51900
O1125       O  0.63549949  0.86466412  0.44827274    -0.75100
O1126       O  0.63764646  0.82628610  0.52183213    -0.81900
O1127       O  0.68398820  0.90820356  0.51079423    -0.83700
O1128       O  0.61087111  0.82355533  0.56296824    -0.79300
O1129       O  0.68012104  0.87496003  0.49321184    -0.90900
O1130       O  0.61138630  0.88939455  0.44246575    -0.76900
O1131       O  0.61017840  0.86605163  0.51725290    -0.86400
O1132       O  0.63899713  0.89803937  0.50180773    -0.86100
O1133       O  0.63763984  0.85412727  0.57888330    -0.72800
O1134       O  0.66387084  0.88280135  0.56232974    -0.85000
Zr1135     Zr  0.60868910  0.91156128  0.61669026     2.26400
Zr1136     Zr  0.60109820  0.85761290  0.58142892     2.06300
Zr1137     Zr  0.65505536  0.91768369  0.55034509     2.10000
Zr1138     Zr  0.60288388  0.90124936  0.50491829     1.78800
O1139       O  0.68631559  0.92880405  0.58160369    -0.93800
O1140       O  0.57147876  0.88519741  0.48248157    -0.41600
O1141       O  0.61866865  0.92147651  0.55335513    -0.78200
O1142       O  0.59215050  0.89232213  0.56713561    -0.96900
O1143       O  0.61749038  0.87695784  0.63000377    -0.90200
O1144       O  0.64519097  0.90921532  0.61390557    -0.93000
C1145       C  0.62347204  0.87599639  0.42844719     1.00700
C1146       C  0.69016830  0.89192451  0.49380482     1.13700
C1147       C  0.62490126  0.81582985  0.54205328     1.04400
O1148       O  0.57200247  0.84342230  0.54737164    -0.95200
O1149       O  0.57087936  0.86726265  0.61683804    -0.90900
O1150       O  0.57331504  0.90100358  0.63172972    -0.84100
C1151       C  0.56337396  0.88395277  0.63008307     1.11100
O1152       O  0.68330456  0.85177933  0.62402611    -0.97200
Zr1153     Zr  0.65382459  0.87455586  0.62568048     1.88900
O1154       O  0.61653686  0.90523065  0.68363673    -0.73800
O1155       O  0.59662133  0.83558895  0.63664272    -0.53100
O1156       O  0.65448142  0.84315385  0.66304161    -0.97700
O1157       O  0.68322946  0.89465038  0.64595016    -0.55000
O1158       O  0.64312067  0.88316284  0.68875694    -0.74300
C1159       C  0.62906743  0.89431427  0.70317963     0.98000
O1160       O  0.58826952  0.93953178  0.64266004    -0.63100
O1161       O  0.65653188  0.94408432  0.50150661    -0.57900
O1162       O  0.61887745  0.94767558  0.61438030    -0.94600
O1163       O  0.64763878  0.95048401  0.57835390    -0.93100
O1164       O  0.60681439  0.93106479  0.46404064    -0.93400
O1165       O  0.57466438  0.92549376  0.50875761    -0.92200
C1166       C  0.63365335  0.95804562  0.59965139     1.16900
H1167       H  0.64424365  0.90217292  0.47734952     0.32800
H1168       H  0.57757545  0.89429401  0.56618718     0.43700
H1169       H  0.65143515  0.91829293  0.63213425     0.37200
H1170       H  0.64218702  0.84055059  0.58556270     0.33700
H1171       H  0.57551489  0.87115253  0.47501094     0.25500
H1172       H  0.58900381  0.82350856  0.62726804     0.31400
H1173       H  0.64131522  0.84294135  0.67694419     0.37300
H1174       H  0.61379591  0.94136594  0.48003077     0.31800
H1175       H  0.66939245  0.95159105  0.50661944     0.30600
H1176       H  0.68866161  0.94292301  0.57229910     0.32300
H1177       H  0.69377746  0.89227640  0.62624480     0.31300
H1178       H  0.57635654  0.93221076  0.53373717     0.35300
H1179       H  0.57592752  0.94038291  0.62650541     0.28000
H1180       H  0.66597319  0.83043304  0.47279304     0.32200
H1181       H  0.68945169  0.85393382  0.59864316     0.35100
H1182       H  0.65917288  0.93669673  0.47748074     0.27700
H1183       H  0.58327637  0.93460842  0.66759328     0.40600
H1184       H  0.56642972  0.83276385  0.56451145     0.30600
H1185       H  0.56293584  0.88327899  0.50542808     0.38300
H1186       H  0.68841843  0.88745396  0.66870051     0.30100
H1187       H  0.61049516  0.83035195  0.64220999     0.30200
H1188       H  0.67637820  0.83061872  0.51306514     0.30400
Zr1189     Zr  0.84191923  0.85587757  0.36566400     2.17500
O1190       O  0.81913639  0.83244983  0.39934388    -0.51900
O1191       O  0.85185569  0.86007159  0.43215011    -0.75100
O1192       O  0.85224599  0.81960659  0.35959290    -0.81900
O1193       O  0.80122930  0.89840348  0.36365908    -0.83700
O1194       O  0.88362330  0.81891638  0.33176433    -0.79300
O1195       O  0.80641721  0.86487958  0.37832227    -0.90900
O1196       O  0.87453850  0.88615406  0.43737154    -0.76900
O1197       O  0.87797142  0.86088331  0.36371266    -0.86400
O1198       O  0.84731822  0.89164657  0.37596729    -0.86100
O1199       O  0.85172439  0.84559076  0.30262611    -0.72800
O1200       O  0.82390833  0.87394566  0.31641996    -0.85000
Zr1201     Zr  0.87730524  0.90393347  0.26010019     2.26400
Zr1202     Zr  0.88793146  0.85145928  0.30050013     2.06300
Zr1203     Zr  0.83053105  0.90960904  0.32578881     2.10000
Zr1204     Zr  0.88327894  0.89656029  0.37343848     1.78800
O1205       O  0.80080979  0.91992456  0.28897753    -0.93800
O1206       O  0.91510866  0.88090148  0.39464358    -0.41600
O1207       O  0.86672936  0.91451334  0.32276259    -0.78200
O1208       O  0.89479141  0.88693523  0.31166211    -0.96900
O1209       O  0.87077106  0.86860709  0.24971171    -0.90200
O1210       O  0.84099047  0.89989121  0.26305213    -0.93000
C1211       C  0.86286285  0.87242698  0.45183959     1.00700
C1212       C  0.79549742  0.88124177  0.37819479     1.13700
C1213       C  0.86825464  0.81012410  0.34737455     1.04400
O1214       O  0.92021122  0.84145648  0.32939025    -0.95200
O1215       O  0.91674970  0.86140941  0.26113369    -0.90900
O1216       O  0.91304541  0.89509482  0.24697834    -0.84100
C1217       C  0.92355464  0.87846586  0.24807145     1.11100
O1218       O  0.80692439  0.83942412  0.25764593    -0.97200
Zr1219     Zr  0.83460083  0.86433471  0.25417228     1.88900
O1220       O  0.86796831  0.89743774  0.19316682    -0.73800
O1221       O  0.88911687  0.82444533  0.25290751    -0.53100
O1222       O  0.84250646  0.83358671  0.21788895    -0.97700
O1223       O  0.80151968  0.87699980  0.23272204    -0.55000
O1224       O  0.84067361  0.87602329  0.19081264    -0.74300
C1225       C  0.85422297  0.88723725  0.17502424     0.98000
O1226       O  0.89512558  0.93050768  0.22407305    -0.63100
O1227       O  0.82489966  0.93567586  0.37422874    -0.57900
O1228       O  0.86947533  0.94016294  0.26921856    -0.94600
O1229       O  0.83973433  0.94340543  0.30223042    -0.93100
O1230       O  0.87842424  0.92731733  0.41143305    -0.93400
O1231       O  0.91021140  0.92226413  0.36913944    -0.92200
C1232       C  0.85501236  0.95091418  0.28389824     1.16900
H1233       H  0.84164160  0.89595980  0.39994898     0.32800
H1234       H  0.90928855  0.88960845  0.31252970     0.43700
H1235       H  0.83434979  0.90821249  0.24403600     0.37200
H1236       H  0.84860590  0.83148615  0.29703917     0.33700
H1237       H  0.92113586  0.89087498  0.41256660     0.25500
H1238       H  0.89243821  0.83152369  0.22882682     0.31400
H1239       H  0.83300224  0.83390048  0.19607136     0.37300
H1240       H  0.86342203  0.92856216  0.41444426     0.31800
H1241       H  0.81228802  0.94284962  0.36623707     0.30600
H1242       H  0.79330552  0.92952132  0.30569614     0.32300
H1243       H  0.80437004  0.89033197  0.22041953     0.31300
H1244       H  0.90943319  0.92739413  0.34274110     0.35300
H1245       H  0.90718125  0.93432808  0.23950610     0.28000
H1246       H  0.82792580  0.82469778  0.41711244     0.32200
H1247       H  0.81051120  0.83048245  0.27931939     0.35100
H1248       H  0.82089385  0.92813481  0.39745467     0.27700
H1249       H  0.90087253  0.92358900  0.20144247     0.40600
H1250       H  0.92727350  0.85452224  0.33499419     0.30600
H1251       H  0.91084019  0.86926790  0.41085850     0.38300
H1252       H  0.79408577  0.88058698  0.25629942     0.30100
H1253       H  0.90158244  0.81651611  0.25903928     0.30200
H1254       H  0.81457105  0.82228952  0.38030654     0.30400
Zr1255     Zr  0.84185385  0.86192454  0.86853077     2.17500
O1256       O  0.81150992  0.84149978  0.88275078    -0.51900
O1257       O  0.85339427  0.86353320  0.93459234    -0.75100
O1258       O  0.84813681  0.82468087  0.86894659    -0.81900
O1259       O  0.81045927  0.91135687  0.87562195    -0.83700
O1260       O  0.87233245  0.81832510  0.82395934    -0.79300
O1261       O  0.81235646  0.87859371  0.89714813    -0.90900
O1262       O  0.88190634  0.88344381  0.93593852    -0.76900
O1263       O  0.87818179  0.86066176  0.86225604    -0.86400
O1264       O  0.85355546  0.89607097  0.87893127    -0.86100
O1265       O  0.84787446  0.85099008  0.80422110    -0.72800
O1266       O  0.82573784  0.88312058  0.82119476    -0.85000
Zr1267     Zr  0.88161076  0.90372573  0.76113821     2.26400
Zr1268     Zr  0.88446385  0.85006170  0.79810846     2.06300
Zr1269     Zr  0.83846785  0.91701518  0.83099576     2.10000
Zr1270     Zr  0.88960982  0.89491662  0.87244397     1.78800
O1271       O  0.80798721  0.93098412  0.80106871    -0.93800
O1272       O  0.92046366  0.87833790  0.89592664    -0.41600
O1273       O  0.87483056  0.91580911  0.82425736    -0.78200
O1274       O  0.89781183  0.88357200  0.80979803    -0.96900
O1275       O  0.86879564  0.87031821  0.74994065    -0.90200
O1276       O  0.84525043  0.90631063  0.76704883    -0.93000
C1277       C  0.86801580  0.87270937  0.95213293     1.00700
C1278       C  0.80386069  0.89633884  0.89587103     1.13700
C1279       C  0.85907433  0.81255799  0.84841831     1.04400
O1280       O  0.91415967  0.83534131  0.82948289    -0.95200
O1281       O  0.91283486  0.85486905  0.75442986    -0.90900
O1282       O  0.91438721  0.88893099  0.74234502    -0.84100
C1283       C  0.92186519  0.87075870  0.74108075     1.11100
O1284       O  0.79922636  0.85663542  0.76589280    -0.97200
Zr1285     Zr  0.83263812  0.87255833  0.75735651     1.88900
O1286       O  0.87025903  0.89966700  0.69574000    -0.73800
O1287       O  0.88498660  0.82338288  0.74961664    -0.53100
O1288       O  0.82713146  0.83972958  0.72634012    -0.97700
O1289       O  0.80638411  0.89536510  0.73233353    -0.55000
O1290       O  0.84367377  0.87748001  0.69228830    -0.74300
C1291       C  0.85749052  0.88871843  0.67694689     0.98000
O1292       O  0.90355613  0.92799818  0.72751401    -0.63100
O1293       O  0.83973505  0.94456785  0.87763916    -0.57900
O1294       O  0.87948034  0.94047660  0.76822105    -0.94600
O1295       O  0.85180143  0.94862527  0.80426177    -0.93100
O1296       O  0.88673532  0.92707701  0.90707204    -0.93400
O1297       O  0.91960530  0.91683769  0.86671465    -0.92200
C1298       C  0.86737032  0.95342226  0.78379270     1.16900
H1299       H  0.84961630  0.90104085  0.90368177     0.32800
H1300       H  0.91255283  0.88373367  0.80867777     0.43700
H1301       H  0.83980234  0.91591233  0.74886738     0.37200
H1302       H  0.84196317  0.83761761  0.80013776     0.33700
H1303       H  0.91604824  0.86434524  0.90304512     0.25500
H1304       H  0.87189999  0.81590198  0.75236784     0.31400
H1305       H  0.84102216  0.83398595  0.72298984     0.37300
H1306       H  0.89124604  0.92384789  0.93318567     0.31800
H1307       H  0.82688096  0.95231214  0.87390446     0.30600
H1308       H  0.80260055  0.94105901  0.81954321     0.32300
H1309       H  0.79596490  0.89639650  0.75267145     0.31300
H1310       H  0.91868025  0.92265755  0.84082721     0.35300
H1311       H  0.91676903  0.92801441  0.74120779     0.28000
H1312       H  0.81515146  0.83277735  0.90470679     0.32200
H1313       H  0.79969368  0.85063168  0.79167701     0.35100
H1314       H  0.83804592  0.93782548  0.90260937     0.27700
H1315       H  0.90657611  0.92163164  0.70263227     0.40600
H1316       H  0.92520271  0.84553991  0.82585305     0.30600
H1317       H  0.92917181  0.87633306  0.87322410     0.38300
H1318       H  0.79964911  0.88743803  0.71193546     0.30100
H1319       H  0.88357230  0.83079372  0.72525400     0.30200
H1320       H  0.80991264  0.83194446  0.86114606     0.30400
Zr1321     Zr  0.60442559  0.12084977  0.15086907     2.17500
O1322       O  0.58241730  0.09554399  0.12043065    -0.51900
O1323       O  0.61172609  0.12577559  0.08287077    -0.75100
O1324       O  0.56813049  0.13102431  0.14950854    -0.81900
O1325       O  0.64605149  0.08069957  0.17238570    -0.83700
O1326       O  0.56478179  0.16270974  0.17540486    -0.79300
O1327       O  0.61336369  0.08460217  0.15201396    -0.90900
O1328       O  0.63582226  0.15044078  0.07573963    -0.76900
O1329       O  0.60742984  0.15714422  0.14724635    -0.86400
O1330       O  0.64002263  0.12747254  0.14142477    -0.86100
O1331       O  0.59220834  0.13335277  0.21129603    -0.72800
O1332       O  0.62194377  0.10666404  0.20461578    -0.85000
Zr1333     Zr  0.64957949  0.16261466  0.25140278     2.26400
Zr1334     Zr  0.59655283  0.16975120  0.20785763     2.06300
Zr1335     Zr  0.65734569  0.11376641  0.19541002     2.10000
Zr1336     Zr  0.64280913  0.16389843  0.13810557     1.78800
O1337       O  0.67341276  0.09198257  0.24295721    -0.93800
O1338       O  0.62561229  0.19189140  0.10535685    -0.41600
O1339       O  0.66065496  0.15003815  0.19103069    -0.78200
O1340       O  0.63200588  0.17766549  0.19800756    -0.96900
O1341       O  0.61423440  0.15576078  0.26106679    -0.90200
O1342       O  0.64633312  0.12626270  0.25594255    -0.93000
C1343       C  0.62391254  0.13666961  0.06232538     1.00700
C1344       C  0.62920403  0.07360725  0.15917996     1.13700
C1345       C  0.55748293  0.14686806  0.15876860     1.04400
O1346       O  0.58795393  0.20073052  0.17288839    -0.95200
O1347       O  0.60266543  0.19876887  0.24883529    -0.90900
O1348       O  0.63530710  0.19564817  0.26974843    -0.84100
C1349       C  0.61815212  0.20516766  0.26764020     1.11100
O1350       O  0.58458994  0.09301005  0.26126561    -0.97200
Zr1351     Zr  0.61068613  0.11964619  0.26409895     1.88900
O1352       O  0.64606184  0.15474503  0.31905299    -0.73800
O1353       O  0.56886858  0.17250246  0.25401663    -0.53100
O1354       O  0.58071431  0.12742137  0.30264757    -0.97700
O1355       O  0.62414075  0.08783831  0.29031916    -0.55000
O1356       O  0.62123264  0.13077851  0.32596563    -0.74300
C1357       C  0.63410288  0.14358865  0.33946365     0.98000
O1358       O  0.67567747  0.18668126  0.27287862    -0.63100
O1359       O  0.67998909  0.09808904  0.14875925    -0.57900
O1360       O  0.68650631  0.15605940  0.24514973    -0.94600
O1361       O  0.69046100  0.12956230  0.20389564    -0.93100
O1362       O  0.67616705  0.15995102  0.10812982    -0.93400
O1363       O  0.66363943  0.19482808  0.13823822    -0.92200
C1364       C  0.69753643  0.14412649  0.22439917     1.16900
H1365       H  0.64541230  0.12072230  0.11919121     0.32800
H1366       H  0.63404258  0.19229507  0.19738808     0.43700
H1367       H  0.65445704  0.12089784  0.27653344     0.37200
H1368       H  0.57805846  0.12984723  0.21571658     0.33700
H1369       H  0.63342476  0.19370569  0.08149209     0.25500
H1370       H  0.56109874  0.18481308  0.24623601     0.31400
H1371       H  0.58123423  0.14242378  0.30657729     0.37300
H1372       H  0.68361155  0.15021155  0.12460766     0.31800
H1373       H  0.68799990  0.10955425  0.13789464     0.30600
H1374       H  0.66613403  0.07872671  0.24116847     0.32300
H1375       H  0.63585439  0.09195859  0.30633490     0.31300
H1376       H  0.67129856  0.19419929  0.16241189     0.35300
H1377       H  0.67407412  0.19902485  0.25681871     0.28000
H1378       H  0.57513535  0.10292999  0.09998150     0.32200
H1379       H  0.58404572  0.08695865  0.28701002     0.35100
H1380       H  0.68996497  0.09018820  0.16396079     0.27700
H1381       H  0.67140627  0.19100486  0.29862871     0.40600
H1382       H  0.60074379  0.20884840  0.17235683     0.30600
H1383       H  0.61229832  0.18622803  0.09711297     0.38300
H1384       H  0.63040075  0.08071719  0.26840314     0.30100
H1385       H  0.55959058  0.16087608  0.24866921     0.30200
H1386       H  0.57174343  0.09207375  0.13935717     0.30400
Zr1387     Zr  0.60129455  0.12556426  0.65019999     2.17500
O1388       O  0.57766384  0.10336035  0.61580005    -0.51900
O1389       O  0.60477693  0.13563603  0.58338775    -0.75100
O1390       O  0.56530096  0.13490539  0.65887752    -0.81900
O1391       O  0.64283883  0.08417589  0.65200375    -0.83700
O1392       O  0.56296691  0.16347419  0.69546641    -0.79300
O1393       O  0.60897204  0.08929423  0.64132664    -0.90900
O1394       O  0.62868548  0.16057900  0.57767968    -0.76900
O1395       O  0.60460498  0.16184680  0.65472399    -0.86400
O1396       O  0.63618918  0.13284797  0.63520891    -0.86100
O1397       O  0.59270625  0.13388395  0.71513326    -0.72800
O1398       O  0.62164213  0.10749810  0.69571927    -0.85000
Zr1399     Zr  0.65213400  0.15923675  0.75101397     2.26400
Zr1400     Zr  0.59719082  0.17039635  0.71943257     2.06300
Zr1401     Zr  0.65643801  0.11518585  0.68096508     2.10000
Zr1402     Zr  0.63948735  0.16911994  0.64092720     1.78800
O1403       O  0.67418552  0.08853332  0.71627366    -0.93800
O1404       O  0.62054693  0.19908642  0.61929618    -0.41600
O1405       O  0.66007099  0.15145227  0.68623510    -0.78200
O1406       O  0.63216752  0.17826431  0.70517314    -0.96900
O1407       O  0.61723240  0.15214666  0.76524759    -0.90200
O1408       O  0.64879673  0.12298685  0.74612086    -0.93000
C1409       C  0.61597235  0.14782742  0.56350750     1.00700
C1410       C  0.62502509  0.07792585  0.64172963     1.13700
C1411       C  0.55502222  0.14913688  0.67538872     1.04400
O1412       O  0.58832145  0.20160462  0.68534556    -0.95200
O1413       O  0.60780721  0.19809858  0.76166534    -0.90900
O1414       O  0.64152719  0.19275799  0.77343152    -0.84100
C1415       C  0.62508339  0.20342782  0.77604021     1.11100
O1416       O  0.58948547  0.08785825  0.75337753    -0.97200
Zr1417     Zr  0.61368060  0.11604140  0.75967767     1.88900
O1418       O  0.65072916  0.14639358  0.81661601    -0.73800
O1419       O  0.57203473  0.17607627  0.76944326    -0.53100
O1420       O  0.58385198  0.11950179  0.80060228    -0.97700
O1421       O  0.63036997  0.08444672  0.77949860    -0.55000
O1422       O  0.62521162  0.12318970  0.82291887    -0.74300
C1423       C  0.63912692  0.13469657  0.83677629     0.98000
O1424       O  0.67656293  0.17977907  0.78699328    -0.63100
O1425       O  0.67514635  0.10662648  0.62321575    -0.57900
O1426       O  0.68828434  0.15431777  0.73209350    -0.94600
O1427       O  0.69084647  0.12871725  0.68879324    -0.93100
O1428       O  0.67134788  0.16786708  0.60499634    -0.93400
O1429       O  0.66072643  0.19972227  0.64463779    -0.92200
C1430       C  0.69872674  0.14302026  0.70907392     1.16900
H1431       H  0.64008731  0.12784530  0.61046556     0.32800
H1432       H  0.63456288  0.19282618  0.70646475     0.43700
H1433       H  0.65788426  0.11602614  0.76338083     0.37200
H1434       H  0.57893657  0.12994491  0.72176000     0.33700
H1435       H  0.62876690  0.20470518  0.59808288     0.25500
H1436       H  0.56227744  0.18610753  0.75869969     0.31400
H1437       H  0.58229868  0.13445067  0.80425383     0.37300
H1438       H  0.66748246  0.17084130  0.57842335     0.31800
H1439       H  0.68048162  0.11987742  0.61375249     0.30600
H1440       H  0.68556363  0.08426872  0.69947570     0.32300
H1441       H  0.62870997  0.07493742  0.75784714     0.31300
H1442       H  0.66848085  0.19812857  0.66855360     0.35300
H1443       H  0.68620950  0.16994577  0.79866497     0.28000
H1444       H  0.56951354  0.11249158  0.59926724     0.32200
H1445       H  0.58704542  0.08671167  0.72574622     0.35100
H1446       H  0.68740661  0.09909989  0.63192382     0.27700
H1447       H  0.68474479  0.18750462  0.76812373     0.40600
H1448       H  0.58033677  0.19696413  0.66311598     0.30600
H1449       H  0.60813706  0.19356660  0.60691463     0.38300
H1450       H  0.62147550  0.07879076  0.79972425     0.30100
H1451       H  0.56419601  0.16313162  0.77114035     0.30200
H1452       H  0.56786616  0.09807019  0.63491480     0.30400
Zr1453     Zr  0.60637958  0.38913270  0.50908916     2.17500
O1454       O  0.58275288  0.41174628  0.54268341    -0.51900
O1455       O  0.61136298  0.37987409  0.57584301    -0.75100
O1456       O  0.57030006  0.37842102  0.50477421    -0.81900
O1457       O  0.64789257  0.43064396  0.49902195    -0.83700
O1458       O  0.56854113  0.34806666  0.47342482    -0.79300
O1459       O  0.61460025  0.42567861  0.51518366    -0.90900
O1460       O  0.63537740  0.35506054  0.58150716    -0.76900
O1461       O  0.61085524  0.35286625  0.50701023    -0.86400
O1462       O  0.64184460  0.38312170  0.52062157    -0.86100
O1463       O  0.59624528  0.37912567  0.44609577    -0.72800
O1464       O  0.62493717  0.40624292  0.45964552    -0.85000
Zr1465     Zr  0.65463313  0.35283876  0.40592129     2.26400
Zr1466     Zr  0.60140100  0.34273308  0.44397158     2.06300
Zr1467     Zr  0.66031324  0.39938637  0.47028012     2.10000
Zr1468     Zr  0.64631729  0.34691433  0.51798152     1.78800
O1469       O  0.67417519  0.42657637  0.43044594    -0.93800
O1470       O  0.63429190  0.31466144  0.54473237    -0.41600
O1471       O  0.66462635  0.36323797  0.46820212    -0.78200
O1472       O  0.63661864  0.33529684  0.45619912    -0.96900
O1473       O  0.61954718  0.35956292  0.39391536    -0.90200
O1474       O  0.65105231  0.38914772  0.40742241    -0.93000
C1475       C  0.62256250  0.36773749  0.59569990     1.00700
C1476       C  0.63059071  0.43706780  0.51148814     1.13700
C1477       C  0.56038589  0.36287330  0.49183427     1.04400
O1478       O  0.58991316  0.31117265  0.47407705    -0.95200
O1479       O  0.61026758  0.31353934  0.40451452    -0.90900
O1480       O  0.64339756  0.31876703  0.38779723    -0.84100
C1481       C  0.62699183  0.30800022  0.38841012     1.11100
O1482       O  0.59263483  0.42508093  0.39835086    -0.97200
Zr1483     Zr  0.61566012  0.39576252  0.39744161     1.88900
O1484       O  0.65169330  0.36326230  0.33970000    -0.73800
O1485       O  0.57694356  0.34218533  0.39197191    -0.53100
O1486       O  0.58360098  0.39181014  0.36297627    -0.97700
O1487       O  0.63336177  0.42638541  0.37512462    -0.55000
O1488       O  0.62643451  0.38679052  0.33467115    -0.74300
C1489       C  0.63988576  0.37492845  0.32027002     0.98000
O1490       O  0.68162278  0.33264465  0.37593790    -0.63100
O1491       O  0.68394158  0.40811361  0.52119417    -0.57900
O1492       O  0.69096763  0.35932859  0.41571210    -0.94600
O1493       O  0.69413794  0.38620684  0.45631515    -0.93100
O1494       O  0.67843234  0.35439596  0.55006668    -0.93400
O1495       O  0.67078237  0.31898607  0.51207967    -0.92200
C1496       C  0.70160507  0.37166814  0.43607145     1.16900
H1497       H  0.64613769  0.38880877  0.54453758     0.32800
H1498       H  0.63904817  0.32071378  0.45609310     0.43700
H1499       H  0.65960091  0.39557713  0.38852140     0.37200
H1500       H  0.58221032  0.38258480  0.44078822     0.33700
H1501       H  0.63853990  0.31497220  0.57166993     0.25500
H1502       H  0.56816872  0.33013805  0.39713805     0.31400
H1503       H  0.58740407  0.38710208  0.33723085     0.37300
H1504       H  0.67555586  0.36650633  0.56609196     0.31800
H1505       H  0.69043954  0.42107266  0.51292945     0.30600
H1506       H  0.68829300  0.42866576  0.43976107     0.32300
H1507       H  0.63207088  0.43642230  0.39604346     0.31300
H1508       H  0.67670342  0.32065889  0.48637488     0.35300
H1509       H  0.68246103  0.31971860  0.39057273     0.28000
H1510       H  0.57508384  0.40292971  0.56062778     0.32200
H1511       H  0.59024406  0.42781018  0.42562883     0.35100
H1512       H  0.67526102  0.41205381  0.54303839     0.27700
H1513       H  0.67625392  0.32861572  0.35077347     0.40600
H1514       H  0.57840597  0.30637019  0.45817543     0.30600
H1515       H  0.61921540  0.31596984  0.54551244     0.38300
H1516       H  0.62476140  0.43191939  0.35444284     0.30100
H1517       H  0.56793748  0.35412836  0.39643681     0.30200
H1518       H  0.57255404  0.41619795  0.52365572     0.30400
Zr1519     Zr  0.60642572  0.39204583  0.00992594     2.17500
O1520       O  0.58394394  0.41720304  0.03980021    -0.51900
O1521       O  0.61208553  0.38503069  0.07708037    -0.75100
O1522       O  0.57022301  0.38198731  0.01027006    -0.81900
O1523       O  0.65094423  0.42922106  0.00379485    -0.83700
O1524       O  0.56843562  0.34947506  0.98780436    -0.79300
O1525       O  0.61694103  0.42784375  0.01691300    -0.90900
O1526       O  0.63323147  0.35774243  0.08364430    -0.76900
O1527       O  0.60865107  0.35556287  0.01161919    -0.86400
O1528       O  0.64145773  0.38378032  0.02083773    -0.86100
O1529       O  0.59496018  0.38086899  0.94832085    -0.72800
O1530       O  0.62527645  0.40724271  0.95859611    -0.85000
Zr1531     Zr  0.65191865  0.35069869  0.90858579     2.26400
Zr1532     Zr  0.59855235  0.34426261  0.94985255     2.06300
Zr1533     Zr  0.66015800  0.39829126  0.96933153     2.10000
Zr1534     Zr  0.64361896  0.34729402  0.02118507     1.78800
O1535       O  0.67279636  0.42453839  0.92614240    -0.93800
O1536       O  0.62727362  0.31600173  0.04375770    -0.41600
O1537       O  0.66252162  0.36185064  0.97010994    -0.78200
O1538       O  0.63347459  0.33481610  0.96013303    -0.96900
O1539       O  0.61702569  0.35904231  0.89823743    -0.90200
O1540       O  0.64998634  0.38721751  0.90732082    -0.93000
C1541       C  0.62245150  0.37235871  0.09720309     1.00700
C1542       C  0.63425363  0.43721724  0.01612178     1.13700
C1543       C  0.56046431  0.36532599  0.00311240     1.04400
O1544       O  0.59353631  0.31120819  0.98047013    -0.95200
O1545       O  0.60294254  0.31821519  0.90187129    -0.90900
O1546       O  0.63689386  0.31813979  0.88854827    -0.84100
C1547       C  0.61881329  0.31047951  0.88603640     1.11100
O1548       O  0.59328559  0.42565274  0.90155904    -0.97200
Zr1549     Zr  0.61478874  0.39525957  0.89761589     1.88900
O1550       O  0.64849632  0.35938501  0.84152494    -0.73800
O1551       O  0.56786742  0.34192448  0.91084206    -0.53100
O1552       O  0.58261096  0.39183183  0.86361196    -0.97700
O1553       O  0.63251856  0.42361008  0.86677740    -0.55000
O1554       O  0.62256380  0.38213291  0.83519126    -0.74300
C1555       C  0.63576100  0.36967784  0.82138490     0.98000
O1556       O  0.67755375  0.32723590  0.88319418    -0.63100
O1557       O  0.68695839  0.40598111  0.01519016    -0.57900
O1558       O  0.68892246  0.35620289  0.91697100    -0.94600
O1559       O  0.69325512  0.38360636  0.95601779    -0.93100
O1560       O  0.67380179  0.35234972  0.06036916    -0.93400
O1561       O  0.66857909  0.31963299  0.02073554    -0.92200
C1562       C  0.70013350  0.36856107  0.93648192     1.16900
H1563       H  0.64652995  0.38967776  0.04412158     0.32800
H1564       H  0.63503400  0.32011656  0.95982027     0.43700
H1565       H  0.65864766  0.39281530  0.88767866     0.37200
H1566       H  0.58090018  0.38462483  0.94388287     0.33700
H1567       H  0.63554706  0.31167039  0.06583588     0.25500
H1568       H  0.55945928  0.33103628  0.92270698     0.31400
H1569       H  0.58084028  0.37688298  0.86021164     0.37300
H1570       H  0.68092715  0.36417165  0.04871240     0.31800
H1571       H  0.69267438  0.41932398  0.00704333     0.30600
H1572       H  0.68756539  0.42564306  0.93190338     0.32300
H1573       H  0.63135179  0.43527081  0.88459598     0.31300
H1574       H  0.67697788  0.32218684  0.99780329     0.35300
H1575       H  0.67580525  0.31428205  0.89746652     0.28000
H1576       H  0.57649017  0.40978337  0.06007521     0.32200
H1577       H  0.59129759  0.42792383  0.92909660     0.35100
H1578       H  0.67980897  0.40891612  0.03936371     0.27700
H1579       H  0.67304230  0.32405448  0.85704968     0.40600
H1580       H  0.58043917  0.30606547  0.97013754     0.30600
H1581       H  0.61413575  0.32054942  0.05493047     0.38300
H1582       H  0.62371334  0.42736748  0.84504657     0.30100
H1583       H  0.56019317  0.35474729  0.91554293     0.30200
H1584       H  0.57345536  0.42067217  0.02062270     0.30400
Zr1585     Zr  0.40222711  0.61302430  0.48605715     2.17500
O1586       O  0.42585810  0.58841242  0.51427605    -0.51900
O1587       O  0.39782390  0.61989423  0.55377393    -0.75100
O1588       O  0.43812660  0.62406196  0.48542412    -0.81900
O1589       O  0.36005185  0.57244509  0.47440946    -0.83700
O1590       O  0.44060751  0.65429957  0.45389898    -0.79300
O1591       O  0.39333490  0.57675809  0.49077103    -0.90900
O1592       O  0.37605185  0.64656388  0.56091735    -0.76900
O1593       O  0.39858345  0.64939365  0.48708488    -0.86400
O1594       O  0.36693046  0.61930638  0.49909952    -0.86100
O1595       O  0.41272462  0.62444174  0.42388118    -0.72800
O1596       O  0.38312441  0.59733604  0.43581177    -0.85000
Zr1597     Zr  0.35393795  0.65150261  0.38712302     2.26400
Zr1598     Zr  0.40776593  0.66097319  0.42459874     2.06300
Zr1599     Zr  0.34791566  0.60432693  0.44828181     2.10000
Zr1600     Zr  0.36332002  0.65556339  0.49925657     1.78800
O1601       O  0.33180294  0.57879063  0.40773803    -0.93800
O1602       O  0.37681249  0.68799003  0.52250043    -0.41600
O1603       O  0.34399862  0.64054393  0.44924582    -0.78200
O1604       O  0.37244425  0.66813246  0.43776120    -0.96900
O1605       O  0.38909651  0.64516172  0.37421928    -0.90200
O1606       O  0.35741080  0.61518732  0.38575226    -0.93000
C1607       C  0.38775637  0.63266265  0.57430010     1.00700
C1608       C  0.37723290  0.56566389  0.48648106     1.13700
C1609       C  0.44832934  0.63959725  0.47328465     1.04400
O1610       O  0.41747243  0.69245813  0.45699209    -0.95200
O1611       O  0.39877998  0.69014441  0.38454647    -0.90900
O1612       O  0.36534863  0.68543941  0.36985721    -0.84100
C1613       C  0.38186386  0.69598985  0.36953135     1.11100
O1614       O  0.41250826  0.57736693  0.37825871    -0.97200
Zr1615     Zr  0.39292808  0.60901195  0.37448599     1.88900
O1616       O  0.35782594  0.64388259  0.31956568    -0.73800
O1617       O  0.43398581  0.66498258  0.37591500    -0.53100
O1618       O  0.42621705  0.61241371  0.34396497    -0.97700
O1619       O  0.37783855  0.58018663  0.34061448    -0.55000
O1620       O  0.38505177  0.62276311  0.31295131    -0.74300
C1621       C  0.37118582  0.63443059  0.29929953     0.98000
O1622       O  0.32643883  0.67309627  0.36285875    -0.63100
O1623       O  0.32471180  0.59404949  0.49911860    -0.57900
O1624       O  0.31740118  0.64405138  0.39433495    -0.94600
O1625       O  0.31412697  0.61786913  0.43646087    -0.93100
O1626       O  0.33421517  0.64708203  0.53956806    -0.93400
O1627       O  0.33744000  0.68234420  0.49986231    -0.92200
C1628       C  0.30669899  0.63191371  0.41518360     1.16900
H1629       H  0.36265679  0.61328262  0.52285214     0.32800
H1630       H  0.37002347  0.68270643  0.43833814     0.43700
H1631       H  0.34877600  0.60921526  0.36651679     0.37200
H1632       H  0.42681667  0.62104360  0.41881533     0.33700
H1633       H  0.37706792  0.68660144  0.55045976     0.25500
H1634       H  0.44197703  0.67709560  0.38402566     0.31400
H1635       H  0.42443001  0.60619582  0.31857437     0.37300
H1636       H  0.32339657  0.64261949  0.52178252     0.31800
H1637       H  0.31848964  0.58111283  0.49009591     0.30600
H1638       H  0.34181374  0.56746289  0.40607409     0.32300
H1639       H  0.36751378  0.58620816  0.32341767     0.31300
H1640       H  0.33005553  0.68060735  0.47558041     0.35300
H1641       H  0.32641442  0.68554185  0.37891487     0.28000
H1642       H  0.43315646  0.59585249  0.53464331     0.32200
H1643       H  0.42146669  0.57922950  0.40060529     0.35100
H1644       H  0.33353836  0.58988963  0.52055153     0.27700
H1645       H  0.33098831  0.67779972  0.33748937     0.40600
H1646       H  0.42505207  0.68803852  0.47985286     0.30600
H1647       H  0.39138621  0.68796258  0.51496561     0.38300
H1648       H  0.36974239  0.57278201  0.36000989     0.30100
H1649       H  0.44338909  0.65325696  0.37941193     0.30200
H1650       H  0.43635580  0.58554310  0.49468827     0.30400
Zr1651     Zr  0.39944262  0.61113429  0.98837566     2.17500
O1652       O  0.41993614  0.58428648  0.01799264    -0.51900
O1653       O  0.39602419  0.62183146  0.05486017    -0.75100
O1654       O  0.43613799  0.61797172  0.98721441    -0.81900
O1655       O  0.35281600  0.57561977  0.98421140    -0.83700
O1656       O  0.44252541  0.64618915  0.95143335    -0.79300
O1657       O  0.38620287  0.57668753  0.00160277    -0.90900
O1658       O  0.37414962  0.64863424  0.05975721    -0.76900
O1659       O  0.39939376  0.64769647  0.98616858    -0.86400
O1660       O  0.36503185  0.62131306  0.99934821    -0.86100
O1661       O  0.41130343  0.61998658  0.92534309    -0.72800
O1662       O  0.37993597  0.59555280  0.93848491    -0.85000
Zr1663     Zr  0.35611653  0.65222711  0.88486150     2.26400
Zr1664     Zr  0.41030954  0.65687487  0.92333796     2.06300
Zr1665     Zr  0.34565460  0.60652133  0.94900476     2.10000
Zr1666     Zr  0.36481546  0.65780772  0.99623207     1.78800
O1667       O  0.33132607  0.58006217  0.90826542    -0.93800
O1668       O  0.38268310  0.68775000  0.02076951    -0.41600
O1669       O  0.34488399  0.64302366  0.94704855    -0.78200
O1670       O  0.37587312  0.66812061  0.93443885    -0.96900
O1671       O  0.39052040  0.64179289  0.87378883    -0.90200
O1672       O  0.35609932  0.61568187  0.88608244    -0.93000
C1673       C  0.38579394  0.63503800  0.07427643     1.00700
C1674       C  0.36875226  0.56763014  0.99923292     1.13700
C1675       C  0.44831823  0.63127545  0.97261147     1.04400
O1676       O  0.42078576  0.68694768  0.95913714    -0.95200
O1677       O  0.40447550  0.68531225  0.87931541    -0.90900
O1678       O  0.37078783  0.68460917  0.86400364    -0.84100
C1679       C  0.38860478  0.69287662  0.86292387     1.11100
O1680       O  0.41073753  0.57412204  0.88316802    -0.97200
Zr1681     Zr  0.39071924  0.60541529  0.87623510     1.88900
O1682       O  0.36041911  0.64337944  0.81831269    -0.73800
O1683       O  0.43790182  0.66070834  0.87716724    -0.53100
O1684       O  0.42240111  0.60527403  0.83971102    -0.97700
O1685       O  0.37226922  0.57662327  0.84839433    -0.55000
O1686       O  0.38392396  0.61802008  0.81329102    -0.74300
C1687       C  0.37220792  0.63164600  0.79888362     0.98000
O1688       O  0.33024976  0.67617843  0.86213913    -0.63100
O1689       O  0.31919247  0.60097031  0.99682483    -0.57900
O1690       O  0.31894009  0.64715178  0.89004127    -0.94600
O1691       O  0.31344554  0.62158996  0.93276329    -0.93100
O1692       O  0.33214420  0.65521449  0.02926925    -0.93400
O1693       O  0.34369590  0.68843499  0.99224744    -0.92200
C1694       C  0.30724825  0.63585901  0.91078058     1.16900
H1695       H  0.35995569  0.61627235  0.02334715     0.32800
H1696       H  0.37501822  0.68285976  0.93355891     0.43700
H1697       H  0.34690188  0.61035128  0.86711397     0.37200
H1698       H  0.42493067  0.61493162  0.92073530     0.33700
H1699       H  0.37484602  0.69180635  0.04362927     0.25500
H1700       H  0.44729653  0.67091673  0.88844142     0.31400
H1701       H  0.43051913  0.61676701  0.85003846     0.37300
H1702       H  0.33392061  0.64398714  0.04785191     0.31800
H1703       H  0.31289554  0.58765532  0.99018734     0.30600
H1704       H  0.31730028  0.57785318  0.91807350     0.32300
H1705       H  0.36062201  0.58259968  0.83435959     0.31300
H1706       H  0.33442911  0.68582808  0.97059704     0.35300
H1707       H  0.33180788  0.68861733  0.87794579     0.28000
H1708       H  0.42799504  0.59109784  0.03812008     0.32200
H1709       H  0.41081318  0.56756176  0.85784349     0.35100
H1710       H  0.32652005  0.59837612  0.02089387     0.27700
H1711       H  0.33467998  0.68032938  0.83637429     0.40600
H1712       H  0.43273792  0.69238922  0.94508348     0.30600
H1713       H  0.39575160  0.68239059  0.03083685     0.38300
H1714       H  0.36600492  0.56941978  0.87023305     0.30100
H1715       H  0.44559321  0.64766407  0.87791908     0.30200
H1716       H  0.43006621  0.57994194  0.99868208     0.30400
Zr1717     Zr  0.39544255  0.88409274  0.13078327     2.17500
O1718       O  0.41465792  0.91142594  0.09963933    -0.51900
O1719       O  0.39077819  0.87713739  0.06306087    -0.75100
O1720       O  0.43243553  0.87791684  0.13123274    -0.81900
O1721       O  0.34893786  0.91904275  0.14343995    -0.83700
O1722       O  0.43786748  0.84683096  0.15843913    -0.79300
O1723       O  0.38292621  0.91941983  0.13011941    -0.90900
O1724       O  0.37169014  0.84843150  0.05578658    -0.76900
O1725       O  0.39637064  0.84750443  0.12969481    -0.86400
O1726       O  0.36131743  0.87311579  0.11824313    -0.86100
O1727       O  0.40745138  0.87395429  0.19266028    -0.72800
O1728       O  0.37497518  0.89697766  0.18192473    -0.85000
Zr1729     Zr  0.35227962  0.83909908  0.23037966     2.26400
Zr1730     Zr  0.40700268  0.83726359  0.19195969     2.06300
Zr1731     Zr  0.34103662  0.88570008  0.16946871     2.10000
Zr1732     Zr  0.36223438  0.83660478  0.11811941     1.78800
O1733       O  0.32202817  0.90895734  0.21043529    -0.93800
O1734       O  0.38096856  0.80765846  0.09167175    -0.41600
O1735       O  0.34140582  0.84918665  0.16844214    -0.78200
O1736       O  0.37292636  0.82530310  0.17959838    -0.96900
O1737       O  0.38640653  0.84989095  0.24276484    -0.90200
O1738       O  0.35160255  0.87566836  0.23184745    -0.93000
C1739       C  0.38154229  0.86378622  0.04244998     1.00700
C1740       C  0.36541426  0.92823979  0.13336598     1.13700
C1741       C  0.44404459  0.86292824  0.14097540     1.04400
O1742       O  0.42139957  0.80604136  0.16519140    -0.95200
O1743       O  0.40288054  0.80805555  0.23386328    -0.90900
O1744       O  0.36949339  0.80808467  0.25164007    -0.84100
C1745       C  0.38753374  0.80027564  0.25146957     1.11100
O1746       O  0.40462372  0.91848944  0.24164120    -0.97200
Zr1747     Zr  0.38606372  0.88617732  0.24296885     1.88900
O1748       O  0.35423539  0.84711253  0.29806745    -0.73800
O1749       O  0.43368668  0.84188908  0.23933401    -0.53100
O1750       O  0.41885991  0.88494763  0.27570036    -0.97700
O1751       O  0.36812352  0.91445940  0.27352463    -0.55000
O1752       O  0.37800827  0.87212768  0.30423904    -0.74300
C1753       C  0.36589913  0.85868273  0.31813014     0.98000
O1754       O  0.32829074  0.81194621  0.24743780    -0.63100
O1755       O  0.31859613  0.89394958  0.11647283    -0.57900
O1756       O  0.31486924  0.84306134  0.22435570    -0.94600
O1757       O  0.30917256  0.86831876  0.18120243    -0.93100
O1758       O  0.32967385  0.83970174  0.08514396    -0.93400
O1759       O  0.34254099  0.80496097  0.11562596    -0.92200
C1760       C  0.30305685  0.85377292  0.20279416     1.16900
H1761       H  0.35595555  0.87868179  0.09492020     0.32800
H1762       H  0.37253570  0.81053599  0.17978449     0.43700
H1763       H  0.34234573  0.88059365  0.25121157     0.37200
H1764       H  0.42106019  0.87900480  0.19758586     0.33700
H1765       H  0.39377830  0.81362148  0.08148990     0.25500
H1766       H  0.42743494  0.83743281  0.26357813     0.31400
H1767       H  0.41708399  0.87493345  0.29653875     0.37300
H1768       H  0.31916463  0.83973648  0.10542363     0.31800
H1769       H  0.31152409  0.88098171  0.11019370     0.30600
H1770       H  0.31554054  0.91885949  0.19292485     0.32300
H1771       H  0.36261925  0.90879966  0.29751987     0.31300
H1772       H  0.33506166  0.80455727  0.14007342     0.35300
H1773       H  0.33246709  0.79983292  0.23240421     0.28000
H1774       H  0.42308766  0.90466737  0.07992487     0.32200
H1775       H  0.41268260  0.91798119  0.21783799     0.35100
H1776       H  0.30780979  0.90278023  0.12749077     0.27700
H1777       H  0.33143964  0.80836440  0.27409319     0.40600
H1778       H  0.43593625  0.80613706  0.17300431     0.30600
H1779       H  0.38537715  0.79956931  0.11396070     0.38300
H1780       H  0.35592173  0.91689759  0.25759552     0.30100
H1781       H  0.44394371  0.83119730  0.23345479     0.30200
H1782       H  0.42455391  0.91643340  0.11874116     0.30400
Zr1783     Zr  0.39695406  0.88184751  0.62979249     2.17500
O1784       O  0.41957921  0.90740527  0.60134022    -0.51900
O1785       O  0.39309914  0.87313537  0.56238420    -0.75100
O1786       O  0.43338707  0.87321275  0.63417361    -0.81900
O1787       O  0.35186346  0.91902661  0.63096631    -0.83700
O1788       O  0.43724247  0.84415429  0.66909268    -0.79300
O1789       O  0.38620453  0.91744536  0.62136030    -0.90900
O1790       O  0.37103572  0.84652162  0.55712475    -0.76900
O1791       O  0.39516686  0.84531814  0.63209849    -0.86400
O1792       O  0.36220200  0.87331725  0.61693798    -0.86100
O1793       O  0.40698031  0.87223889  0.69322285    -0.72800
O1794       O  0.37664654  0.89801278  0.67795795    -0.85000
Zr1795     Zr  0.34975253  0.84343948  0.73204707     2.26400
Zr1796     Zr  0.40401684  0.83548776  0.69575972     2.06300
Zr1797     Zr  0.34196769  0.88854834  0.66575679     2.10000
Zr1798     Zr  0.36043839  0.83695949  0.61994324     1.78800
O1799       O  0.32637857  0.91508258  0.70481249    -0.93800
O1800       O  0.38025273  0.80757232  0.59840453    -0.41600
O1801       O  0.34003264  0.85212378  0.66857935    -0.78200
O1802       O  0.36919311  0.82644987  0.68284190    -0.96900
O1803       O  0.38444222  0.85199978  0.74428568    -0.90200
O1804       O  0.35131112  0.87991235  0.72964218    -0.93000
C1805       C  0.38261215  0.86026982  0.54270846     1.00700
C1806       C  0.36895472  0.92690358  0.62062854     1.13700
C1807       C  0.44438803  0.85905583  0.64923905     1.04400
O1808       O  0.41734567  0.80528564  0.66366435    -0.95200
O1809       O  0.39514474  0.80552460  0.73475823    -0.90900
O1810       O  0.36187727  0.80996792  0.75123534    -0.84100
C1811       C  0.37848897  0.79952681  0.75094309     1.11100
O1812       O  0.40869105  0.91804583  0.73393271    -0.97200
Zr1813     Zr  0.38636066  0.88835000  0.74056295     1.88900
O1814       O  0.35216972  0.85446473  0.79831178    -0.73800
O1815       O  0.42779870  0.83374593  0.74868253    -0.53100
O1816       O  0.41793239  0.88681943  0.77716827    -0.97700
O1817       O  0.36825604  0.91839592  0.76408697    -0.55000
O1818       O  0.37702824  0.87839746  0.80387723    -0.74300
C1819       C  0.36400700  0.86597147  0.81812549     0.98000
O1820       O  0.32775746  0.81973578  0.76698772    -0.63100
O1821       O  0.31725601  0.89584526  0.61578441    -0.57900
O1822       O  0.31297592  0.84762262  0.71983409    -0.94600
O1823       O  0.30888656  0.87278496  0.67605455    -0.93100
O1824       O  0.32979010  0.84065359  0.58140358    -0.93400
O1825       O  0.33787171  0.80727637  0.61857141    -0.92200
C1826       C  0.30190781  0.85843290  0.69730488     1.16900
H1827       H  0.35770695  0.87859584  0.59281806     0.32800
H1828       H  0.36730109  0.81178504  0.68317773     0.43700
H1829       H  0.34228162  0.88605655  0.74815762     0.37200
H1830       H  0.42073889  0.87653084  0.69891942     0.33700
H1831       H  0.37914419  0.79738738  0.61912167     0.25500
H1832       H  0.43875209  0.82437654  0.74002113     0.31400
H1833       H  0.41426649  0.89154638  0.80298275     0.37300
H1834       H  0.31913598  0.84551858  0.59925634     0.31800
H1835       H  0.31281158  0.91013933  0.62024620     0.30600
H1836       H  0.33446162  0.92758264  0.69946270     0.32300
H1837       H  0.36694137  0.92747536  0.74172071     0.31300
H1838       H  0.33304277  0.80576513  0.64506404     0.35300
H1839       H  0.31805800  0.82828733  0.78165916     0.28000
H1840       H  0.42802033  0.90001665  0.58243314     0.32200
H1841       H  0.41492241  0.91655453  0.70845284     0.35100
H1842       H  0.32522127  0.89639153  0.59189234     0.27700
H1843       H  0.31933355  0.81255544  0.74783161     0.40600
H1844       H  0.42746341  0.79948364  0.68154399     0.30600
H1845       H  0.37225477  0.80165298  0.57726313     0.38300
H1846       H  0.37809872  0.92547855  0.78087950     0.30100
H1847       H  0.43433718  0.84741712  0.74941821     0.30200
H1848       H  0.42920546  0.91155590  0.62159040     0.30400
Zr1849     Zr  0.35399684  0.13888230  0.01443482     2.17500
O1850       O  0.32602736  0.16002107  0.99069844    -0.51900
O1851       O  0.36474891  0.13362698  0.94837232    -0.75100
O1852       O  0.36166194  0.17603002  0.01394129    -0.81900
O1853       O  0.31929879  0.09115852  0.01509246    -0.83700
O1854       O  0.39020976  0.18149888  0.04953424    -0.79300
O1855       O  0.32229684  0.12359395  0.99238994    -0.90900
O1856       O  0.39072907  0.11053164  0.94822269    -0.76900
O1857       O  0.39038078  0.13672443  0.01741363    -0.86400
O1858       O  0.36209956  0.10333069  0.00955771    -0.86100
O1859       O  0.36279578  0.15201353  0.07604372    -0.72800
O1860       O  0.33674944  0.12178047  0.06609595    -0.85000
Zr1861     Zr  0.39242968  0.09858254  0.12658430     2.26400
Zr1862     Zr  0.39941421  0.14959160  0.07899706     2.06300
Zr1863     Zr  0.34627893  0.08649809  0.06216512     2.10000
Zr1864     Zr  0.39816202  0.10111711  0.01284022     1.78800
O1865       O  0.31521329  0.07877819  0.09765200    -0.93800
O1866       O  0.42992134  0.11395082  0.98540956    -0.41600
O1867       O  0.38269687  0.08449487  0.06602566    -0.78200
O1868       O  0.40888965  0.11437646  0.07264832    -0.96900
O1869       O  0.38299476  0.13353340  0.13195032    -0.90200
O1870       O  0.35582561  0.09945082  0.12329002    -0.93000
C1871       C  0.37799135  0.12227689  0.93136393     1.00700
C1872       C  0.31319771  0.10617681  0.99437152     1.13700
C1873       C  0.37527033  0.18772093  0.02920235     1.04400
O1874       O  0.42882874  0.16232804  0.04364823    -0.95200
O1875       O  0.43040360  0.14319633  0.11492766    -0.90900
O1876       O  0.42713844  0.11133042  0.13984270    -0.84100
C1877       C  0.43746822  0.12777403  0.13326844     1.11100
O1878       O  0.31698514  0.15679931  0.11841309    -0.97200
Zr1879     Zr  0.34652326  0.13451924  0.12700159     1.88900
O1880       O  0.38249586  0.10685729  0.19229249    -0.73800
O1881       O  0.40121292  0.17590069  0.12790065    -0.53100
O1882       O  0.34794092  0.16769329  0.15844229    -0.97700
O1883       O  0.31594033  0.11723811  0.15039895    -0.55000
O1884       O  0.35452086  0.12739278  0.19214814    -0.74300
C1885       C  0.36854758  0.11738499  0.20927194     0.98000
O1886       O  0.41335731  0.07362334  0.16040436    -0.63100
O1887       O  0.34360178  0.05507509  0.02521323    -0.57900
O1888       O  0.38653155  0.06177263  0.12610036    -0.94600
O1889       O  0.35738822  0.05535660  0.09318015    -0.93100
O1890       O  0.39168165  0.06920987  0.97917548    -0.93400
O1891       O  0.42532043  0.07608486  0.02195560    -0.92200
C1892       C  0.37275466  0.04963735  0.11315559     1.16900
H1893       H  0.35718905  0.09758535  0.98609499     0.32800
H1894       H  0.42348615  0.11250617  0.07229537     0.43700
H1895       H  0.34971928  0.09151478  0.14348157     0.37200
H1896       H  0.35828962  0.16595593  0.07953813     0.33700
H1897       H  0.42728829  0.12863009  0.98036299     0.25500
H1898       H  0.40549734  0.16864859  0.15124095     0.31400
H1899       H  0.36227278  0.16900212  0.16709768     0.37300
H1900       H  0.38508700  0.06019460  0.99819486     0.31800
H1901       H  0.32921245  0.05061701  0.02818475     0.30600
H1902       H  0.30652365  0.07104670  0.07968882     0.32300
H1903       H  0.30621861  0.11751417  0.12891017     0.31300
H1904       H  0.42049830  0.06739256  0.04320415     0.35300
H1905       H  0.42571663  0.07161338  0.14452895     0.28000
H1906       H  0.33189045  0.16864018  0.97026929     0.32200
H1907       H  0.31969506  0.16417123  0.09436610     0.35100
H1908       H  0.34474486  0.05944964  0.99840243     0.27700
H1909       H  0.41828535  0.08070808  0.18347205     0.40600
H1910       H  0.43397727  0.17399842  0.05880947     0.30600
H1911       H  0.43986748  0.11395917  0.00653372     0.38300
H1912       H  0.31000168  0.12670402  0.16939149     0.30100
H1913       H  0.41317673  0.18439303  0.12081988     0.30200
H1914       H  0.32261089  0.16961084  0.01152488     0.30400
Zr1915     Zr  0.35983004  0.14261781  0.51561761     2.17500
O1916       O  0.33643954  0.16536804  0.48193902    -0.51900
O1917       O  0.37248026  0.13830356  0.45019876    -0.75100
O1918       O  0.36692147  0.17960335  0.52464666    -0.81900
O1919       O  0.32096594  0.09750485  0.51214902    -0.83700
O1920       O  0.39502506  0.18262253  0.56177605    -0.79300
O1921       O  0.32607514  0.13090178  0.49657061    -0.90900
O1922       O  0.39966803  0.11670238  0.44991900    -0.76900
O1923       O  0.39594295  0.14020096  0.52353086    -0.86400
O1924       O  0.36830853  0.10744654  0.50561374    -0.86100
O1925       O  0.36546165  0.15254496  0.58066787    -0.72800
O1926       O  0.34064417  0.12292800  0.56137660    -0.85000
Zr1927     Zr  0.39321127  0.09646833  0.62549072     2.26400
Zr1928     Zr  0.40175610  0.14962940  0.58842232     2.06300
Zr1929     Zr  0.35012597  0.08792759  0.55213143     2.10000
Zr1930     Zr  0.40424858  0.10495446  0.51433839     1.78800
O1931       O  0.32016015  0.07363186  0.58357600    -0.93800
O1932       O  0.43785492  0.11906662  0.49973644    -0.41600
O1933       O  0.38627622  0.08572207  0.56142346    -0.78200
O1934       O  0.41195784  0.11502950  0.57770520    -0.96900
O1935       O  0.38329561  0.13097681  0.63576749    -0.90200
O1936       O  0.35686766  0.09752695  0.61675649    -0.93000
C1937       C  0.38656072  0.12804180  0.43301646     1.00700
C1938       C  0.31539760  0.11436948  0.49619911     1.13700
C1939       C  0.38029902  0.19033250  0.54277953     1.04400
O1940       O  0.43353937  0.16162411  0.55996051    -0.95200
O1941       O  0.42954523  0.14231365  0.63103131    -0.90900
O1942       O  0.42702870  0.10872075  0.64660334    -0.84100
C1943       C  0.43661989  0.12598604  0.64621318     1.11100
O1944       O  0.31955484  0.15692584  0.61893807    -0.97200
Zr1945     Zr  0.34722891  0.13226696  0.62572494     1.88900
O1946       O  0.38095270  0.10153983  0.69069118    -0.73800
O1947       O  0.40215150  0.17435627  0.64018591    -0.53100
O1948       O  0.34665812  0.16273595  0.66555657    -0.97700
O1949       O  0.31421759  0.11598857  0.63708190    -0.55000
O1950       O  0.35193084  0.12057632  0.68998410    -0.74300
C1951       C  0.36585468  0.11049363  0.70726531     0.98000
O1952       O  0.41303426  0.06962595  0.65649310    -0.63100
O1953       O  0.34884383  0.06414812  0.49895953    -0.57900
O1954       O  0.38696593  0.05996487  0.61761590    -0.94600
O1955       O  0.36132881  0.05463841  0.57530111    -0.93100
O1956       O  0.40126589  0.07429733  0.47541871    -0.93400
O1957       O  0.43087979  0.07944083  0.52414818    -0.92200
C1958       C  0.37508258  0.04820867  0.59844250     1.16900
H1959       H  0.36431160  0.10288199  0.48069977     0.32800
H1960       H  0.42657081  0.11342179  0.57961242     0.43700
H1961       H  0.35006360  0.08847144  0.63436775     0.37200
H1962       H  0.36080613  0.16620473  0.58619846     0.33700
H1963       H  0.44165389  0.11281572  0.47512598     0.25500
H1964       H  0.41180655  0.18517528  0.63195157     0.31400
H1965       H  0.35929983  0.16191280  0.68087136     0.37300
H1966       H  0.41054902  0.07667632  0.45362070     0.31800
H1967       H  0.36288082  0.05857169  0.49699340     0.30600
H1968       H  0.31811260  0.06012609  0.57140675     0.32300
H1969       H  0.31730430  0.10304591  0.65051381     0.31300
H1970       H  0.42857522  0.07440102  0.55031644     0.35300
H1971       H  0.42613275  0.06890776  0.64237975     0.28000
H1972       H  0.34505600  0.17474309  0.46665290     0.32200
H1973       H  0.31731529  0.15792693  0.59122983     0.35100
H1974       H  0.34046096  0.05251270  0.50811179     0.27700
H1975       H  0.41667817  0.07512459  0.68176252     0.40600
H1976       H  0.43880018  0.17204880  0.57785020     0.30600
H1977       H  0.43530873  0.13365034  0.49370784     0.38300
H1978       H  0.30943183  0.11168217  0.61168525     0.30100
H1979       H  0.38853326  0.18096077  0.63942681     0.30200
H1980       H  0.33002604  0.17408797  0.50163379     0.30400
Zr1981     Zr  0.16646736  0.13465944  0.36714131     2.17500
O1982       O  0.19403363  0.15655390  0.39023707    -0.51900
O1983       O  0.15719424  0.13274255  0.43411423    -0.75100
O1984       O  0.15868168  0.17165596  0.36488125    -0.81900
O1985       O  0.20343280  0.08887497  0.36157680    -0.83700
O1986       O  0.12894956  0.17628246  0.33241423    -0.79300
O1987       O  0.20043231  0.12161569  0.38264679    -0.90900
O1988       O  0.13434999  0.10698708  0.44179801    -0.76900
O1989       O  0.13024039  0.13098792  0.37203695    -0.86400
O1990       O  0.16014388  0.09899773  0.37699094    -0.86100
O1991       O  0.15373266  0.14602368  0.30680464    -0.72800
O1992       O  0.18114948  0.11674993  0.31386882    -0.85000
Zr1993     Zr  0.12336587  0.09019468  0.26751094     2.26400
Zr1994     Zr  0.11719717  0.14266536  0.31220321     2.06300
Zr1995     Zr  0.17343890  0.08134764  0.32280936     2.10000
Zr1996     Zr  0.12414657  0.09515235  0.38036269     1.78800
O1997       O  0.20155757  0.07403021  0.27953198    -0.93800
O1998       O  0.09279997  0.10540821  0.41261164    -0.41600
O1999       O  0.13706777  0.07762719  0.32626448    -0.78200
O2000       O  0.10947874  0.10713196  0.32265059    -0.96900
O2001       O  0.13088673  0.12541542  0.25785800    -0.90200
O2002       O  0.15983795  0.09246508  0.26314182    -0.93000
C2003       C  0.14609316  0.12094423  0.45480785     1.00700
C2004       C  0.21018780  0.10458232  0.37968033     1.13700
C2005       C  0.14472736  0.18305128  0.35006846     1.04400
O2006       O  0.09202072  0.15437516  0.35834967    -0.95200
O2007       O  0.08473301  0.13389230  0.28176329    -0.90900
O2008       O  0.08769503  0.10121144  0.26038026    -0.84100
C2009       C  0.07729727  0.11762599  0.26644617     1.11100
O2010       O  0.19915714  0.14709106  0.25729943    -0.97200
Zr2011     Zr  0.16727978  0.12773870  0.25455620     1.88900
O2012       O  0.12900270  0.09696686  0.19995489    -0.73800
O2013       O  0.10874559  0.16896541  0.26576768    -0.53100
O2014       O  0.16410945  0.16176899  0.22676530    -0.97700
O2015       O  0.19289569  0.11051395  0.21568248    -0.55000
O2016       O  0.15215856  0.12253397  0.19365629    -0.74300
C2017       C  0.13916533  0.10995366  0.17998438     0.98000
O2018       O  0.10175812  0.06429400  0.23769478    -0.63100
O2019       O  0.18101115  0.05165182  0.36228836    -0.57900
O2020       O  0.13106903  0.05363420  0.26998446    -0.94600
O2021       O  0.16171712  0.04864571  0.29876451    -0.93100
O2022       O  0.13514160  0.06339262  0.41041284    -0.93400
O2023       O  0.09724910  0.06932784  0.38089626    -0.92200
C2024       C  0.14566470  0.04207170  0.28175122     1.16900
H2025       H  0.16661293  0.09416076  0.39992300     0.32800
H2026       H  0.09504385  0.10486698  0.32627047     0.43700
H2027       H  0.16492850  0.08423970  0.24245337     0.37200
H2028       H  0.15797790  0.15974274  0.30068382     0.33700
H2029       H  0.09344690  0.09866925  0.43775735     0.25500
H2030       H  0.10574081  0.16144680  0.24203790     0.31400
H2031       H  0.17257533  0.16131662  0.20345711     0.37300
H2032       H  0.13613274  0.06658560  0.43779372     0.31800
H2033       H  0.19580351  0.04903255  0.35871510     0.30600
H2034       H  0.20613071  0.06009555  0.28662196     0.32300
H2035       H  0.20491133  0.10877619  0.23240234     0.31300
H2036       H  0.09365844  0.06741661  0.35385385     0.35300
H2037       H  0.09006397  0.06215111  0.25516576     0.28000
H2038       H  0.18804081  0.16492111  0.41088030     0.32200
H2039       H  0.20693311  0.14106396  0.27862473     0.35100
H2040       H  0.17974517  0.05660614  0.38872514     0.27700
H2041       H  0.09581492  0.07092577  0.21498285     0.40600
H2042       H  0.08132519  0.14363769  0.35840888     0.30600
H2043       H  0.09469905  0.12015231  0.41812544     0.38300
H2044       H  0.19719365  0.12086474  0.19673056     0.30100
H2045       H  0.09537320  0.17447636  0.27414460     0.30200
H2046       H  0.19709522  0.16632594  0.36949039     0.30400
Zr2047     Zr  0.16266973  0.14051602  0.86956351     2.17500
O2048       O  0.18608386  0.16254448  0.90485402    -0.51900
O2049       O  0.15231158  0.13660154  0.93597733    -0.75100
O2050       O  0.15467898  0.17734024  0.86451386    -0.81900
O2051       O  0.20241241  0.09703692  0.86328102    -0.83700
O2052       O  0.12305351  0.17974478  0.83879952    -0.79300
O2053       O  0.19799349  0.13047934  0.87917614    -0.90900
O2054       O  0.12965609  0.11053934  0.94155493    -0.76900
O2055       O  0.12658468  0.13602031  0.87092339    -0.86400
O2056       O  0.15685466  0.10468251  0.87885168    -0.86100
O2057       O  0.15180707  0.15194663  0.80779435    -0.72800
O2058       O  0.17928818  0.12286413  0.81786415    -0.85000
Zr2059     Zr  0.12351669  0.09501441  0.76682299     2.26400
Zr2060     Zr  0.11552070  0.14731671  0.80977561     2.06300
Zr2061     Zr  0.17231119  0.08717559  0.82637464     2.10000
Zr2062     Zr  0.12073657  0.10017561  0.87880320     1.78800
O2063       O  0.20227095  0.07882058  0.78827292    -0.93800
O2064       O  0.08928104  0.11271672  0.90777936    -0.41600
O2065       O  0.13592059  0.08257046  0.82670163    -0.78200
O2066       O  0.10765822  0.11189629  0.81974541    -0.96900
O2067       O  0.13078939  0.13027583  0.75680874    -0.90200
O2068       O  0.15998676  0.09816578  0.76578408    -0.93000
C2069       C  0.14101418  0.12445905  0.95568423     1.00700
C2070       C  0.20867190  0.11399982  0.87778165     1.13700
C2071       C  0.13927705  0.18778030  0.85251291     1.04400
O2072       O  0.08635053  0.15841102  0.84751547    -0.95200
O2073       O  0.08555901  0.13959731  0.77284626    -0.90900
O2074       O  0.08857350  0.10671317  0.75243202    -0.84100
C2075       C  0.07863364  0.12359256  0.75634595     1.11100
O2076       O  0.19628248  0.15656858  0.76159504    -0.97200
Zr2077     Zr  0.16711676  0.13346375  0.75703814     1.88900
O2078       O  0.13162863  0.10023883  0.70001624    -0.73800
O2079       O  0.11079567  0.17418020  0.76250510    -0.53100
O2080       O  0.16274810  0.16573386  0.72323461    -0.97700
O2081       O  0.19680943  0.11711873  0.72812471    -0.55000
O2082       O  0.15660405  0.12414807  0.69414524    -0.74300
C2083       C  0.14358379  0.11165002  0.68018555     0.98000
O2084       O  0.10042761  0.06780681  0.74627418    -0.63100
O2085       O  0.17828291  0.05948623  0.87139030    -0.57900
O2086       O  0.13363242  0.05927594  0.76460932    -0.94600
O2087       O  0.16360089  0.05462700  0.79617509    -0.93100
O2088       O  0.12784246  0.06812983  0.91158019    -0.93400
O2089       O  0.09273588  0.07567887  0.87495211    -0.92200
C2090       C  0.14850149  0.04806666  0.77618243     1.16900
H2091       H  0.16289133  0.10006754  0.90231569     0.32800
H2092       H  0.09306534  0.10961680  0.82086734     0.43700
H2093       H  0.16584984  0.09001962  0.74565618     0.37200
H2094       H  0.15541481  0.16583882  0.80186837     0.33700
H2095       H  0.08880298  0.10617565  0.93311918     0.25500
H2096       H  0.12371129  0.18209955  0.76276116     0.31400
H2097       H  0.15073777  0.16362823  0.70663646     0.37300
H2098       H  0.14293304  0.06717947  0.91237583     0.31800
H2099       H  0.19104662  0.05288320  0.86248149     0.30600
H2100       H  0.20587368  0.06466261  0.79577203     0.32300
H2101       H  0.20779541  0.11816002  0.74730864     0.31300
H2102       H  0.09533817  0.06801513  0.85119469     0.35300
H2103       H  0.08867362  0.06814406  0.76404255     0.28000
H2104       H  0.17746176  0.17065037  0.92243010     0.32200
H2105       H  0.19591693  0.16164110  0.78805730     0.35100
H2106       H  0.18215477  0.06629588  0.89541138     0.27700
H2107       H  0.09485906  0.07220999  0.72147576     0.40600
H2108       H  0.07835285  0.14577139  0.85210296     0.30600
H2109       H  0.09192422  0.12736292  0.91312304     0.38300
H2110       H  0.20106796  0.12650713  0.70749535     0.30100
H2111       H  0.11098095  0.16699349  0.73778051     0.30200
H2112       H  0.19153355  0.17258245  0.88633109     0.30400
C2113       C  0.14708410  0.12292239  0.49654503    -0.05800
C2114       C  0.15845223  0.13860271  0.51384349    -0.05800
C2115       C  0.15999529  0.13958361  0.55335734    -0.23900
C2116       C  0.15029366  0.12483230  0.57612188     0.18300
C2117       C  0.13874382  0.10911750  0.55896957     0.15500
C2118       C  0.13713072  0.10833429  0.51950313    -0.19000
C2119       C  0.12909128  0.09429192  0.58150670    -0.20800
C2120       C  0.13076568  0.09504930  0.62088884    -0.13400
C2121       C  0.14215864  0.11062260  0.63840596     0.03300
C2122       C  0.15195842  0.12547586  0.61571300    -0.25500
H2123       H  0.16626708  0.15001925  0.49686658     0.08400
H2124       H  0.16889877  0.15176617  0.56608338     0.12000
H2125       H  0.12834709  0.09606546  0.50673235     0.11900
H2126       H  0.12023842  0.08210279  0.56867367     0.11700
H2127       H  0.12314693  0.08339689  0.63761941     0.12200
H2128       H  0.16074437  0.13765076  0.62877926     0.14200
C2129       C  0.13592501  0.11079182  0.13846191    -0.05800
C2130       C  0.12226969  0.09738983  0.12032686    -0.05800
C2131       C  0.11988590  0.09805229  0.08094662    -0.23900
C2132       C  0.13113515  0.11210522  0.05912746     0.18300
C2133       C  0.14454966  0.12591815  0.07712937     0.15500
C2134       C  0.14680635  0.12521242  0.11652416    -0.19000
C2135       C  0.15579035  0.13999441  0.05540294    -0.20800
C2136       C  0.15425138  0.13997176  0.01591434    -0.13400
C2137       C  0.14138400  0.12591609  0.99755078     0.03300
C2138       C  0.12953869  0.11227739  0.01955653    -0.25500
H2139       H  0.11358219  0.08626468  0.13649074     0.08400
H2140       H  0.10945170  0.08740560  0.06751646     0.12000
H2141       H  0.15730822  0.13579895  0.12995824     0.11900
H2142       H  0.16606825  0.15076361  0.06890829     0.11700
H2143       H  0.16345955  0.15067418  0.99976194     0.12200
H2144       H  0.11942743  0.10137674  0.00594912     0.14200
C2145       C  0.23034458  0.10286687  0.39928621    -0.05800
C2146       C  0.23945523  0.08360697  0.40541467    -0.05800
C2147       C  0.25763767  0.08181793  0.42619091    -0.23900
C2148       C  0.26728842  0.09926893  0.44099706     0.18300
C2149       C  0.25858982  0.11873742  0.43413148     0.15500
C2150       C  0.24023163  0.12041132  0.41358451    -0.19000
C2151       C  0.26834755  0.13626881  0.44805623    -0.20800
C2152       C  0.28654516  0.13460698  0.46846587    -0.13400
C2153       C  0.29542574  0.11536317  0.47588231     0.03300
C2154       C  0.28552701  0.09765082  0.46223523    -0.25500
H2155       H  0.23227864  0.06979970  0.39484854     0.08400
H2156       H  0.26409221  0.06674872  0.43083181     0.12000
H2157       H  0.23361131  0.13541615  0.40891597     0.11900
H2158       H  0.26195564  0.15133158  0.44300645     0.11700
H2159       H  0.29368099  0.14854092  0.47856039     0.12200
H2160       H  0.29222113  0.08272330  0.46733674     0.14200
C2161       C  0.36472977  0.11026278  0.74922195    -0.05800
C2162       C  0.34563769  0.11004441  0.76767506    -0.05800
C2163       C  0.34427915  0.11262833  0.80702044    -0.23900
C2164       C  0.36198245  0.11589398  0.82859485     0.18300
C2165       C  0.38128793  0.11581240  0.81033332     0.15500
C2166       C  0.38254993  0.11278920  0.77089635    -0.19000
C2167       C  0.39902231  0.11898710  0.83176849    -0.20800
C2168       C  0.39772545  0.12182673  0.87096262    -0.13400
C2169       C  0.37867931  0.12195413  0.88946342     0.03300
C2170       C  0.36077116  0.11916100  0.86805998    -0.25500
H2171       H  0.33170266  0.10818266  0.75147949     0.08400
H2172       H  0.32935797  0.11246979  0.82045023     0.12000
H2173       H  0.39731450  0.11330141  0.75685511     0.11900
H2174       H  0.41393278  0.11901013  0.81829799     0.11700
H2175       H  0.41169458  0.12371434  0.88705369     0.12200
H2176       H  0.34605164  0.11878044  0.88227846     0.14200
C2177       C  0.36865880  0.11885809  0.25133656    -0.05800
C2178       C  0.35040881  0.12340345  0.27087355    -0.05800
C2179       C  0.35043715  0.12694807  0.30996909    -0.23900
C2180       C  0.36874431  0.12612766  0.33048223     0.18300
C2181       C  0.38716122  0.12125972  0.31137498     0.15500
C2182       C  0.38700643  0.11757294  0.27196938    -0.19000
C2183       C  0.40540512  0.12013896  0.33208345    -0.20800
C2184       C  0.40532061  0.12322552  0.37138814    -0.13400
C2185       C  0.38707216  0.12791894  0.39080795     0.03300
C2186       C  0.36885849  0.12970619  0.36988363    -0.25500
H2187       H  0.33603993  0.12442824  0.25576022     0.08400
H2188       H  0.33613464  0.13046342  0.32411611     0.12000
H2189       H  0.40120304  0.11427682  0.25725518     0.11900
H2190       H  0.41968569  0.11645269  0.31801396     0.11700
H2191       H  0.41953858  0.12158181  0.38678725     0.12200
H2192       H  0.35461069  0.13291144  0.38450234     0.14200
C2193       C  0.22944746  0.11499643  0.89454393    -0.05800
C2194       C  0.23941208  0.13403574  0.89741219    -0.05800
C2195       C  0.25813127  0.13578244  0.91601316    -0.23900
C2196       C  0.26720178  0.11857063  0.93264172     0.18300
C2197       C  0.25763188  0.09923892  0.92946258     0.15500
C2198       C  0.23888521  0.09751073  0.91004441    -0.19000
C2199       C  0.26676253  0.08212791  0.94660291    -0.20800
C2200       C  0.28489351  0.08425841  0.96740668    -0.13400
C2201       C  0.29433774  0.10352542  0.97127333     0.03300
C2202       C  0.28546064  0.12054515  0.95312735    -0.25500
H2203       H  0.23258824  0.14772012  0.88554349     0.08400
H2204       H  0.26530743  0.15070489  0.91806800     0.12000
H2205       H  0.23129242  0.08278101  0.90830759     0.11900
H2206       H  0.25972477  0.06715112  0.94440660     0.11700
H2207       H  0.29145017  0.07082195  0.98065358     0.12200
H2208       H  0.29247814  0.13552540  0.95561788     0.14200
C2209       C  0.36862068  0.94857104  0.60878736    -0.05800
C2210       C  0.35167620  0.95636284  0.58907401    -0.05800
C2211       C  0.35017731  0.97726448  0.58113022    -0.23900
C2212       C  0.36529845  0.99083069  0.59383244     0.18300
C2213       C  0.38247125  0.98312078  0.61352917     0.15500
C2214       C  0.38424330  0.96197868  0.62017669    -0.19000
C2215       C  0.39720117  0.99676234  0.62740270    -0.20800
C2216       C  0.39476259  0.01785351  0.62247368    -0.13400
C2217       C  0.37769570  0.02575076  0.60305411     0.03300
C2218       C  0.36318545  0.01201679  0.58821834    -0.25500
H2219       H  0.33945723  0.94625616  0.58015327     0.08400
H2220       H  0.33689040  0.98289010  0.56606721     0.12000
H2221       H  0.39719527  0.95610125  0.63594959     0.11900
H2222       H  0.41042618  0.99115151  0.64267676     0.11700
H2223       H  0.40630884  0.02798257  0.63393503     0.12200
H2224       H  0.34994382  0.01780592  0.57320235     0.14200
C2225       C  0.37491639  0.02742598  0.12039302    -0.05800
C2226       C  0.39393126  0.01884472  0.13013082    -0.05800
C2227       C  0.39611658  0.99760245  0.13374014    -0.23900
C2228       C  0.37928558  0.98463245  0.12797806     0.18300
C2229       C  0.36006436  0.99322297  0.11897407     0.15500
C2230       C  0.35803589  0.01444177  0.11517848    -0.19000
C2231       C  0.34309997  0.98047490  0.11378501    -0.20800
C2232       C  0.34504458  0.95935291  0.11783662    -0.13400
C2233       C  0.36404368  0.95052939  0.12669302     0.03300
C2234       C  0.38122204  0.96327393  0.13137896    -0.25500
H2235       H  0.40723019  0.02850281  0.13403433     0.08400
H2236       H  0.41096528  0.99132522  0.14080143     0.12000
H2237       H  0.34325411  0.02083669  0.10791397     0.11900
H2238       H  0.32826912  0.98685396  0.10689559     0.11700
H2239       H  0.33159667  0.94988067  0.11409636     0.12200
H2240       H  0.39589523  0.95665175  0.13868747     0.14200
C2241       C  0.38109653  0.86672671  0.00068745    -0.05800
C2242       C  0.39151879  0.88312344  0.98342496    -0.05800
C2243       C  0.38979295  0.88659252  0.94438887    -0.23900
C2244       C  0.37746388  0.87385020  0.92194975     0.18300
C2245       C  0.36683277  0.85742763  0.93898355     0.15500
C2246       C  0.36885835  0.85386545  0.97800419    -0.19000
C2247       C  0.35425213  0.84486286  0.91674997    -0.20800
C2248       C  0.35258645  0.84821020  0.87772362    -0.13400
C2249       C  0.36355223  0.86413166  0.86012296     0.03300
C2250       C  0.37575380  0.87710987  0.88272253    -0.25500
H2251       H  0.40087036  0.89340406  0.00012516     0.08400
H2252       H  0.39800168  0.89932110  0.93179286     0.12000
H2253       H  0.36052222  0.84125662  0.99075116     0.11900
H2254       H  0.34589300  0.83226688  0.92946782     0.11700
H2255       H  0.34317334  0.83791767  0.86117153     0.12200
H2256       H  0.38430993  0.88950071  0.86974017     0.14200
C2257       C  0.36613279  0.85639786  0.36003046    -0.05800
C2258       C  0.35412556  0.84156727  0.37851002    -0.05800
C2259       C  0.35527274  0.83915476  0.41791394    -0.23900
C2260       C  0.36850039  0.85146989  0.43945627     0.18300
C2261       C  0.38060824  0.86639800  0.42122088     0.15500
C2262       C  0.37933645  0.86876757  0.38183670    -0.19000
C2263       C  0.39380555  0.87875959  0.44265207    -0.20800
C2264       C  0.39486067  0.87651375  0.48203317    -0.13400
C2265       C  0.38281099  0.86178497  0.50067273     0.03300
C2266       C  0.36972718  0.84921039  0.47893865    -0.25500
H2267       H  0.34395999  0.83173956  0.36252831     0.08400
H2268       H  0.34586508  0.82761584  0.43152643     0.12000
H2269       H  0.38882659  0.88024330  0.36821763     0.11900
H2270       H  0.40319229  0.89029641  0.42897984     0.11700
H2271       H  0.40493573  0.88648206  0.49790963     0.12200
H2272       H  0.36017197  0.83784763  0.49272215     0.14200
C2273       C  0.39065013  0.71249495  0.84159157    -0.05800
C2274       C  0.40994827  0.72054578  0.83195697    -0.05800
C2275       C  0.41162772  0.73893519  0.81154067    -0.23900
C2276       C  0.39404716  0.74973576  0.80051967     0.18300
C2277       C  0.37461340  0.74175738  0.81012985     0.15500
C2278       C  0.37304150  0.72329963  0.83036288    -0.19000
C2279       C  0.35697154  0.75238154  0.79949863    -0.20800
C2280       C  0.35848448  0.77085765  0.77990576    -0.13400
C2281       C  0.37768040  0.77925158  0.77030499     0.03300
C2282       C  0.39549443  0.76841321  0.78043493    -0.25500
H2283       H  0.42378045  0.71254951  0.83997623     0.08400
H2284       H  0.42668736  0.74473112  0.80446868     0.12000
H2285       H  0.35800988  0.71745171  0.83760873     0.11900
H2286       H  0.34194550  0.74645891  0.80652912     0.11700
H2287       H  0.34444313  0.77861105  0.77231849     0.12200
H2288       H  0.41038926  0.77464844  0.77339178     0.14200
C2289       C  0.38873639  0.63085737  0.61618167    -0.05800
C2290       C  0.40084946  0.61580473  0.63368314    -0.05800
C2291       C  0.40016855  0.61307809  0.67302295    -0.23900
C2292       C  0.38728399  0.62527713  0.69548057     0.18300
C2293       C  0.37540210  0.64072543  0.67829008     0.15500
C2294       C  0.37627661  0.64347281  0.63895975    -0.19000
C2295       C  0.36257828  0.65300951  0.70061361    -0.20800
C2296       C  0.36135867  0.64989792  0.73970756    -0.13400
C2297       C  0.37290944  0.63440504  0.75720497     0.03300
C2298       C  0.38596342  0.62220368  0.73476872    -0.25500
H2299       H  0.41057904  0.60587984  0.61693145     0.08400
H2300       H  0.40947759  0.60122412  0.68580524     0.12000
H2301       H  0.36679740  0.65516855  0.62607885     0.11900
H2302       H  0.35344195  0.66499766  0.68782409     0.11700
H2303       H  0.35141147  0.65971924  0.75623439     0.12200
H2304       H  0.39515778  0.61032619  0.74778548     0.14200
C2305       C  0.37108944  0.63721144  0.25751006    -0.05800
C2306       C  0.35595008  0.64894721  0.23942088    -0.05800
C2307       C  0.35617344  0.65140253  0.19996424    -0.23900
C2308       C  0.37154146  0.64217241  0.17794579     0.18300
C2309       C  0.38694417  0.63058511  0.19587811     0.15500
C2310       C  0.38665399  0.62824509  0.23534559    -0.19000
C2311       C  0.40228255  0.62126176  0.17403196    -0.20800
C2312       C  0.40211415  0.62295503  0.13454960    -0.13400
C2313       C  0.38674469  0.63420651  0.11622949     0.03300
C2314       C  0.37161650  0.64403718  0.13828968    -0.25500
H2315       H  0.34388476  0.65616150  0.25571335     0.08400
H2316       H  0.34425188  0.66039105  0.18665646     0.12000
H2317       H  0.39859344  0.61929618  0.24871037     0.11900
H2318       H  0.41425377  0.61239362  0.18745642     0.11700
H2319       H  0.41396078  0.61534175  0.11833191     0.12200
H2320       H  0.35955956  0.65269195  0.12461280     0.14200
C2321       C  0.39058574  0.78102460  0.27312782    -0.05800
C2322       C  0.41015087  0.77240207  0.27789211    -0.05800
C2323       C  0.41270961  0.75429019  0.29872792    -0.23900
C2324       C  0.39575036  0.74447205  0.31511489     0.18300
C2325       C  0.37610589  0.75315398  0.31053277     0.15500
C2326       C  0.37367329  0.77121620  0.28973581    -0.19000
C2327       C  0.35904648  0.74361430  0.32662063    -0.20800
C2328       C  0.36126817  0.72536979  0.34646093    -0.13400
C2329       C  0.38060176  0.71621478  0.35077726     0.03300
C2330       C  0.39793682  0.72603716  0.33551154    -0.25500
H2331       H  0.42350028  0.77967303  0.26561073     0.08400
H2332       H  0.42791521  0.74794334  0.30190306     0.12000
H2333       H  0.35846637  0.77756055  0.28640652     0.11900
H2334       H  0.34391072  0.75015558  0.32353777     0.11700
H2335       H  0.34767897  0.71831816  0.35827819     0.12200
H2336       H  0.41290136  0.71910124  0.33854130     0.14200
C2337       C  0.62129329  0.36897564  0.63773475    -0.05800
C2338       C  0.60730830  0.38232498  0.65525305    -0.05800
C2339       C  0.60720718  0.38480997  0.69460860    -0.23900
C2340       C  0.62117162  0.37409795  0.71728132     0.18300
C2341       C  0.63499851  0.36026547  0.70025739     0.15500
C2342       C  0.63491001  0.35770014  0.66068271    -0.19000
C2343       C  0.64891387  0.34952577  0.72306603    -0.20800
C2344       C  0.64932412  0.35269860  0.76231950    -0.13400
C2345       C  0.63581988  0.36667122  0.77956647     0.03300
C2346       C  0.62165067  0.37719133  0.75665266    -0.25500
H2347       H  0.59661809  0.39115516  0.63848620     0.08400
H2348       H  0.59641160  0.39539097  0.70726022     0.12000
H2349       H  0.64581918  0.34731416  0.64777595     0.11900
H2350       H  0.65956779  0.33875938  0.71053144     0.11700
H2351       H  0.66021357  0.34415644  0.77916076     0.12200
H2352       H  0.61094857  0.38785538  0.76936529     0.14200
C2353       C  0.62305055  0.37534066  0.13867173    -0.05800
C2354       C  0.60846938  0.38762062  0.15707150    -0.05800
C2355       C  0.60957240  0.39080544  0.19615936    -0.23900
C2356       C  0.62528408  0.38177559  0.21738614     0.18300
C2357       C  0.64024987  0.36973353  0.19909119     0.15500
C2358       C  0.63907045  0.36664630  0.15990085    -0.19000
C2359       C  0.65591064  0.36065417  0.22040184    -0.20800
C2360       C  0.65622654  0.36276334  0.25982762    -0.13400
C2361       C  0.64106305  0.37425284  0.27841999     0.03300
C2362       C  0.62592796  0.38414596  0.25675145    -0.25500
H2363       H  0.59613809  0.39465449  0.14128958     0.08400
H2364       H  0.59801615  0.40013911  0.20984489     0.12000
H2365       H  0.65069386  0.35749216  0.14595922     0.11900
H2366       H  0.66759651  0.35149389  0.20669455     0.11700
H2367       H  0.66810121  0.35508533  0.27578225     0.12200
H2368       H  0.61410835  0.39310084  0.27055995     0.14200
C2369       C  0.53249230  0.14841515  0.67241493    -0.05800
C2370       C  0.52112564  0.16654651  0.66898739    -0.05800
C2371       C  0.49982523  0.16582570  0.66576806    -0.23900
C2372       C  0.48951718  0.14696320  0.66665145     0.18300
C2373       C  0.50073939  0.12868443  0.67152028     0.15500
C2374       C  0.52217505  0.12950968  0.67402401    -0.19000
C2375       C  0.49034846  0.10987941  0.67298876    -0.20800
C2376       C  0.46916267  0.10905929  0.66748806    -0.13400
C2377       C  0.45797541  0.12703867  0.66046223     0.03300
C2378       C  0.46826754  0.14603797  0.66144861    -0.25500
H2379       H  0.52878385  0.18125282  0.66800259     0.08400
H2380       H  0.49143634  0.18000056  0.66218910     0.12000
H2381       H  0.53084016  0.11547630  0.67741787     0.11900
H2382       H  0.49869761  0.09572887  0.67712234     0.11700
H2383       H  0.46172839  0.09424097  0.66683006     0.12200
H2384       H  0.45991889  0.16011100  0.65635487     0.14200
C2385       C  0.62672129  0.22337418  0.79607628    -0.05800
C2386       C  0.64619249  0.23096260  0.80572916    -0.05800
C2387       C  0.64837405  0.24967365  0.82419568    -0.23900
C2388       C  0.63114202  0.26122222  0.83380744     0.18300
C2389       C  0.61142842  0.25390751  0.82449881     0.15500
C2390       C  0.60931499  0.23506436  0.80543567    -0.19000
C2391       C  0.59423956  0.26551658  0.83477863    -0.20800
C2392       C  0.59659595  0.28397872  0.85451562    -0.13400
C2393       C  0.61619946  0.29129352  0.86401011     0.03300
C2394       C  0.63340078  0.27985209  0.85305695    -0.25500
H2395       H  0.65992391  0.22248514  0.79878765     0.08400
H2396       H  0.66358882  0.25505799  0.83115567     0.12000
H2397       H  0.59420271  0.22945716  0.79829160     0.11900
H2398       H  0.57898150  0.26022932  0.82791450     0.11700
H2399       H  0.58304149  0.29251166  0.86240046     0.12200
H2400       H  0.64861038  0.28519730  0.86020764     0.14200
C2401       C  0.53510685  0.14661840  0.15198949    -0.05800
C2402       C  0.52443547  0.16507931  0.14652006    -0.05800
C2403       C  0.50312263  0.16520289  0.14326970    -0.23900
C2404       C  0.49199331  0.14689461  0.14612058     0.18300
C2405       C  0.50249464  0.12828681  0.15235567     0.15500
C2406       C  0.52398473  0.12821787  0.15471603    -0.19000
C2407       C  0.49130035  0.11006942  0.15616252    -0.20800
C2408       C  0.47000015  0.11012734  0.15229679    -0.13400
C2409       C  0.45943300  0.12838251  0.14425385     0.03300
C2410       C  0.47059284  0.14683539  0.14213331    -0.25500
H2411       H  0.53262020  0.17947862  0.14478701     0.08400
H2412       H  0.49534050  0.17963977  0.13870433     0.12000
H2413       H  0.53199787  0.11395191  0.15982029     0.11900
H2414       H  0.49905870  0.09568403  0.16135276     0.11700
H2415       H  0.46190865  0.09568040  0.15396111     0.12200
H2416       H  0.46271636  0.16108742  0.13623040     0.14200
C2417       C  0.64095986  0.13529284  0.87890792    -0.05800
C2418       C  0.65372859  0.14975846  0.89650856    -0.05800
C2419       C  0.65322564  0.15247718  0.93585523    -0.23900
C2420       C  0.63992267  0.14081522  0.95849798     0.18300
C2421       C  0.62759224  0.12565462  0.94152424     0.15500
C2422       C  0.62828053  0.12288288  0.90194793    -0.19000
C2423       C  0.61437148  0.11394172  0.96433101    -0.20800
C2424       C  0.61307331  0.11751267  0.00346974    -0.13400
C2425       C  0.62496911  0.13287162  0.02064246     0.03300
C2426       C  0.63853975  0.14432128  0.99774065    -0.25500
H2427       H  0.66362798  0.15952910  0.87974814     0.08400
H2428       H  0.66289817  0.16408680  0.94848057     0.12000
H2429       H  0.61835790  0.11156807  0.88904623     0.11900
H2430       H  0.60486961  0.10214777  0.95184286     0.11700
H2431       H  0.60270148  0.10826067  0.02025999     0.12200
H2432       H  0.64801776  0.15610745  0.01033667     0.14200
C2433       C  0.61542999  0.14618418  0.52153429    -0.05800
C2434       C  0.60187391  0.13260208  0.50358510    -0.05800
C2435       C  0.60308343  0.12928648  0.46448881    -0.23900
C2436       C  0.61795871  0.13937916  0.44265007     0.18300
C2437       C  0.63145640  0.15330931  0.46013687     0.15500
C2438       C  0.62997651  0.15678089  0.49930856    -0.19000
C2439       C  0.64640143  0.16329867  0.43823226    -0.20800
C2440       C  0.64776483  0.15973337  0.39916348    -0.13400
C2441       C  0.63422805  0.14607944  0.38133188     0.03300
C2442       C  0.61948994  0.13578993  0.40357997    -0.25500
H2443       H  0.59059253  0.12418689  0.51986431     0.08400
H2444       H  0.59257482  0.11858281  0.45141893     0.12000
H2445       H  0.64064225  0.16725955  0.51258202     0.11900
H2446       H  0.65694695  0.17397590  0.45127024     0.11700
H2447       H  0.65920490  0.16791088  0.38285192     0.12200
H2448       H  0.60884218  0.12523765  0.39045549     0.14200
C2449       C  0.62789928  0.28790415  0.36942219    -0.05800
C2450       C  0.64678154  0.27774972  0.36648119    -0.05800
C2451       C  0.64847745  0.25952659  0.34625603    -0.23900
C2452       C  0.63134782  0.25118853  0.32827063     0.18300
C2453       C  0.61217302  0.26105734  0.33139179     0.15500
C2454       C  0.61049548  0.27927893  0.35238500    -0.19000
C2455       C  0.59514178  0.25266560  0.31296366    -0.20800
C2456       C  0.59710330  0.23466309  0.29176995    -0.13400
C2457       C  0.61612121  0.22468255  0.28874583     0.03300
C2458       C  0.63318619  0.23316304  0.30709658    -0.25500
H2459       H  0.66035236  0.28401012  0.37969727     0.08400
H2460       H  0.66325653  0.25209614  0.34428184     0.12000
H2461       H  0.59589523  0.28707267  0.35436071     0.11900
H2462       H  0.58032388  0.26001441  0.31491722     0.11700
H2463       H  0.58365648  0.22845720  0.27806447     0.12200
H2464       H  0.64797642  0.22575259  0.30500054     0.14200
C2465       C  0.85943025  0.88872071  0.63496960    -0.05800
C2466       C  0.86974572  0.90483432  0.61662413    -0.05800
C2467       C  0.87279191  0.90454662  0.57741871    -0.23900
C2468       C  0.86572156  0.88805662  0.55566017     0.18300
C2469       C  0.85529742  0.87173333  0.57357705     0.15500
C2470       C  0.85211613  0.87219845  0.61310863    -0.19000
C2471       C  0.84825666  0.85527122  0.55157378    -0.20800
C2472       C  0.85112729  0.85520947  0.51216252    -0.13400
C2473       C  0.86127609  0.87151014  0.49396002     0.03300
C2474       C  0.86874875  0.88778142  0.51620989    -0.25500
H2475       H  0.87553155  0.91773060  0.63266499     0.08400
H2476       H  0.88076400  0.91721927  0.56412537     0.12000
H2477       H  0.84433674  0.85954492  0.62688515     0.11900
H2478       H  0.84030647  0.84255660  0.56477168     0.11700
H2479       H  0.84519635  0.84247432  0.49587669     0.12200
H2480       H  0.87647793  0.90056715  0.50276520     0.14200
C2481       C  0.85389986  0.88734032  0.13303349    -0.05800
C2482       C  0.83496790  0.88724777  0.11414875    -0.05800
C2483       C  0.83385607  0.88358169  0.07516051    -0.23900
C2484       C  0.85165684  0.87956909  0.05428514     0.18300
C2485       C  0.87084361  0.87987589  0.07283054     0.15500
C2486       C  0.87187565  0.88400099  0.11202307    -0.19000
C2487       C  0.88863443  0.87581758  0.05189304    -0.20800
C2488       C  0.88751679  0.87224882  0.01284697    -0.13400
C2489       C  0.86858229  0.87231367  0.99403564     0.03300
C2490       C  0.85061935  0.87554626  0.01511522    -0.25500
H2491       H  0.82090426  0.88953494  0.12989013     0.08400
H2492       H  0.81902911  0.88349453  0.06149159     0.12000
H2493       H  0.88648895  0.88358968  0.12646907     0.11900
H2494       H  0.90346118  0.87584843  0.06554444     0.11700
H2495       H  0.90155696  0.86996886  0.99703248     0.12200
H2496       H  0.83598894  0.87603176  0.00071006     0.14200
C2497       C  0.63495395  0.98030466  0.60712199    -0.05800
C2498       C  0.65407509  0.99012217  0.60492414    -0.05800
C2499       C  0.65575110  0.01119947  0.61016510    -0.23900
C2500       C  0.63831720  0.02296506  0.61748820     0.18300
C2501       C  0.61892843  0.01340365  0.61938581     0.15500
C2502       C  0.61736836  0.99205798  0.61455057    -0.19000
C2503       C  0.60150915  0.02539826  0.62615904    -0.20800
C2504       C  0.60338088  0.04651798  0.63209939    -0.13400
C2505       C  0.62272080  0.05600992  0.63157423     0.03300
C2506       C  0.64007570  0.04410382  0.62352845    -0.25500
H2507       H  0.66785728  0.98143631  0.59926863     0.08400
H2508       H  0.67071428  0.01829291  0.60853969     0.12000
H2509       H  0.60252072  0.98469143  0.61582856     0.11900
H2510       H  0.58648727  0.01841477  0.62742084     0.11700
H2511       H  0.58973089  0.05531168  0.63822833     0.12200
H2512       H  0.65505094  0.05122513  0.62255940     0.14200
C2513       C  0.46690306  0.86055961  0.64553563    -0.05800
C2514       C  0.47891238  0.84274734  0.64656766    -0.05800
C2515       C  0.50021668  0.84401001  0.64605594    -0.23900
C2516       C  0.50995058  0.86313293  0.64494259     0.18300
C2517       C  0.49813618  0.88122178  0.64429596     0.15500
C2518       C  0.47664284  0.87982543  0.64422536    -0.19000
C2519       C  0.50808283  0.90031112  0.64351879    -0.20800
C2520       C  0.52949500  0.90140149  0.64150599    -0.13400
C2521       C  0.54131359  0.88341152  0.64038251     0.03300
C2522       C  0.53132720  0.86435786  0.64341884    -0.25500
H2523       H  0.47178358  0.82778276  0.64781199     0.08400
H2524       H  0.50909249  0.83000256  0.64654695     0.12000
H2525       H  0.46752452  0.89368692  0.64410152     0.11900
H2526       H  0.49929199  0.91437243  0.64335304     0.11700
H2527       H  0.53671325  0.91627374  0.63899845     0.12200
H2528       H  0.54016522  0.85031550  0.64292969     0.14200
C2529       C  0.77507169  0.88010491  0.39655858    -0.05800
C2530       C  0.76451589  0.86134950  0.39854448    -0.05800
C2531       C  0.74571359  0.85990377  0.41742371    -0.23900
C2532       C  0.73723562  0.87711282  0.43533164     0.18300
C2533       C  0.74778329  0.89600462  0.43373545     0.15500
C2534       C  0.76646139  0.89745171  0.41399842    -0.19000
C2535       C  0.73958876  0.91310446  0.45228271    -0.20800
C2536       C  0.72107116  0.91161037  0.47196265    -0.13400
C2537       C  0.71017543  0.89300282  0.47344019     0.03300
C2538       C  0.71848305  0.87573671  0.45496967    -0.25500
H2539       H  0.77081480  0.84775163  0.38537880     0.08400
H2540       H  0.73791349  0.84526676  0.41834750     0.12000
H2541       H  0.77457659  0.91193089  0.41314601     0.11900
H2542       H  0.74751699  0.92767729  0.45161242     0.11700
H2543       H  0.71522129  0.92518900  0.48586000     0.12200
H2544       H  0.71042460  0.86123460  0.45587029     0.14200
C2545       C  0.64125345  0.97605176  0.12769152    -0.05800
C2546       C  0.66045834  0.98537338  0.13248940    -0.05800
C2547       C  0.66191215  0.00620436  0.14092001    -0.23900
C2548       C  0.64418687  0.01813538  0.14405151     0.18300
C2549       C  0.62479766  0.00887327  0.13953042     0.15500
C2550       C  0.62344386  0.98785777  0.13188117    -0.19000
C2551       C  0.60709239  0.02086764  0.14190069    -0.20800
C2552       C  0.60856611  0.04190824  0.14820712    -0.13400
C2553       C  0.62776180  0.05130483  0.15265216     0.03300
C2554       C  0.64554016  0.03922939  0.15093810    -0.25500
H2555       H  0.67439191  0.97655205  0.12948722     0.08400
H2556       H  0.67689824  0.01304616  0.14430949     0.12000
H2557       H  0.60856504  0.98086865  0.12780156     0.11900
H2558       H  0.59211315  0.01401758  0.13848628     0.11700
H2559       H  0.59462570  0.05081728  0.14977180     0.12200
H2560       H  0.66044975  0.04627862  0.15420622     0.14200
C2561       C  0.54149086  0.88357570  0.12677084    -0.05800
C2562       C  0.53080057  0.90167494  0.13543690    -0.05800
C2563       C  0.50941783  0.90151950  0.13891909    -0.23900
C2564       C  0.49836674  0.88326196  0.13384168     0.18300
C2565       C  0.50907550  0.86494520  0.12609061     0.15500
C2566       C  0.53040627  0.86520810  0.12283835    -0.19000
C2567       C  0.49830752  0.84658140  0.12139928    -0.20800
C2568       C  0.47709735  0.84621614  0.12509373    -0.13400
C2569       C  0.46618593  0.86423395  0.13298160     0.03300
C2570       C  0.47687629  0.88285665  0.13676713    -0.25500
H2571       H  0.53888424  0.91606192  0.13837751     0.08400
H2572       H  0.50151477  0.91571449  0.14509444     0.12000
H2573       H  0.53833243  0.85104615  0.11638288     0.11900
H2574       H  0.50631794  0.83242621  0.11534348     0.11700
H2575       H  0.46917169  0.83173114  0.12213774     0.12200
H2576       H  0.46858244  0.89677991  0.14339424     0.14200
C2577       C  0.62698417  0.89389800  0.74506287    -0.05800
C2578       C  0.61235515  0.90611827  0.76350449    -0.05800
C2579       C  0.61014982  0.90529667  0.80288491    -0.23900
C2580       C  0.62246671  0.89217413  0.82452422     0.18300
C2581       C  0.63702118  0.87958714  0.80640109     0.15500
C2582       C  0.63923473  0.88056618  0.76687512    -0.19000
C2583       C  0.64918325  0.86633035  0.82815930    -0.20800
C2584       C  0.64733154  0.86598110  0.86771502    -0.13400
C2585       C  0.63327271  0.87887398  0.88613085     0.03300
C2586       C  0.62063603  0.89167960  0.86406358    -0.25500
H2587       H  0.60259512  0.91634491  0.74751719     0.08400
H2588       H  0.59884138  0.91498221  0.81643730     0.12000
H2589       H  0.65046773  0.87084102  0.75318074     0.11900
H2590       H  0.66033775  0.85645853  0.81463469     0.11700
H2591       H  0.65721623  0.85596327  0.88388999     0.12200
H2592       H  0.60959022  0.90167317  0.87762271     0.14200
C2593       C  0.62023957  0.88915149  0.24515634    -0.05800
C2594       C  0.60757631  0.90362620  0.26303520    -0.05800
C2595       C  0.60509021  0.90340904  0.30243136    -0.23900
C2596       C  0.61518990  0.88869247  0.32456455     0.18300
C2597       C  0.62754485  0.87379445  0.30683638     0.15500
C2598       C  0.62993926  0.87408332  0.26738735    -0.19000
C2599       C  0.63761138  0.85904542  0.32889833    -0.20800
C2600       C  0.63590892  0.85937288  0.36840593    -0.13400
C2601       C  0.62400284  0.87438094  0.38650908     0.03300
C2602       C  0.61344228  0.88885127  0.36416995    -0.25500
H2603       H  0.59978032  0.91527378  0.24666154     0.08400
H2604       H  0.59546189  0.91489120  0.31562232     0.12000
H2605       H  0.63962975  0.86266488  0.25413860     0.11900
H2606       H  0.64707967  0.84745651  0.31563205     0.11700
H2607       H  0.64416886  0.84805908  0.38478730     0.12200
H2608       H  0.60424249  0.90062668  0.37754814     0.14200
C2609       C  0.71919324  0.88907392  0.99406706    -0.05800
C2610       C  0.73032676  0.87072339  0.99638984    -0.05800
C2611       C  0.74963322  0.86903496  0.97972661    -0.23900
C2612       C  0.75798804  0.88550315  0.95945319     0.18300
C2613       C  0.74696599  0.90406908  0.95674317     0.15500
C2614       C  0.72773449  0.90586723  0.97460234    -0.19000
C2615       C  0.75517814  0.92027578  0.93543608    -0.20800
C2616       C  0.77387131  0.91796065  0.91641342    -0.13400
C2617       C  0.78484461  0.89943719  0.91850694     0.03300
C2618       C  0.77689432  0.88341966  0.94088270    -0.25500
H2619       H  0.72403313  0.85760392  0.01119062     0.08400
H2620       H  0.75783608  0.85467313  0.98199796     0.12000
H2621       H  0.71910731  0.91997889  0.97215809     0.11900
H2622       H  0.74695566  0.93460859  0.93285113     0.11700
H2623       H  0.77953862  0.93059615  0.89947735     0.12200
H2624       H  0.78508843  0.86903796  0.94298887     0.14200
C2625       C  0.85558373  0.79035385  0.84967818    -0.05800
C2626       C  0.85865723  0.77898265  0.88283084    -0.05800
C2627       C  0.85933477  0.75755504  0.88110005    -0.23900
C2628       C  0.85693034  0.74738295  0.84619637     0.18300
C2629       C  0.85266970  0.75876606  0.81312580     0.15500
C2630       C  0.85199014  0.78015929  0.81516204    -0.19000
C2631       C  0.84999622  0.74861688  0.77832585    -0.20800
C2632       C  0.85227986  0.72733910  0.77600343    -0.13400
C2633       C  0.85756446  0.71602738  0.80832411     0.03300
C2634       C  0.85940343  0.72611621  0.84351800    -0.25500
H2635       H  0.86161965  0.78665973  0.90948618     0.08400
H2636       H  0.86247028  0.74898114  0.90675334     0.12000
H2637       H  0.84954310  0.78900618  0.78951443     0.11900
H2638       H  0.84656803  0.75718356  0.75278867     0.11700
H2639       H  0.85058291  0.71981789  0.74881521     0.12200
H2640       H  0.86301267  0.71740081  0.86882156     0.14200
C2641       C  0.85857757  0.71525107  0.29554506    -0.05800
C2642       C  0.83967103  0.72531396  0.29193427    -0.05800
C2643       C  0.83729046  0.74558356  0.30431643    -0.23900
C2644       C  0.85371453  0.75615100  0.32087552     0.18300
C2645       C  0.87280195  0.74623674  0.32447231     0.15500
C2646       C  0.87516016  0.72606912  0.31144260    -0.19000
C2647       C  0.88930328  0.75669144  0.34086069    -0.20800
C2648       C  0.88726015  0.77718093  0.35156333    -0.13400
C2649       C  0.86858703  0.78749757  0.34681437     0.03300
C2650       C  0.85162707  0.77666109  0.33265402    -0.25500
H2651       H  0.82655591  0.71735431  0.28039768     0.08400
H2652       H  0.82253896  0.75293545  0.30124049     0.12000
H2653       H  0.88983508  0.71860087  0.31489717     0.11900
H2654       H  0.90401263  0.74926102  0.34408777     0.11700
H2655       H  0.90057362  0.78530742  0.36192050     0.12200
H2656       H  0.83729907  0.78462480  0.32806450     0.14200
C2657       C  0.86998669  0.63722713  0.64808299    -0.05800
C2658       C  0.88853647  0.64000261  0.62843779    -0.05800
C2659       C  0.88957857  0.63738882  0.58902967    -0.23900
C2660       C  0.87219356  0.63134553  0.56861022     0.18300
C2661       C  0.85343006  0.62869326  0.58813795     0.15500
C2662       C  0.85238156  0.63194951  0.62757690    -0.19000
C2663       C  0.83609301  0.62236925  0.56803104    -0.20800
C2664       C  0.83715129  0.61914060  0.52890407    -0.13400
C2665       C  0.85560402  0.62187383  0.50900689     0.03300
C2666       C  0.87320793  0.62780536  0.52913794    -0.25500
H2667       H  0.90237789  0.64368476  0.64383567     0.08400
H2668       H  0.90410542  0.63951956  0.57471029     0.12000
H2669       H  0.83816374  0.62919527  0.64263891     0.11900
H2670       H  0.82163555  0.62009478  0.58251417     0.11700
H2671       H  0.82339701  0.61468070  0.51395333     0.12200
H2672       H  0.88743810  0.63027449  0.51396061     0.14200
C2673       C  0.86045201  0.62798117  0.14699156    -0.05800
C2674       C  0.84619477  0.64058862  0.12839566    -0.05800
C2675       C  0.84329580  0.63913706  0.08920775    -0.23900
C2676       C  0.85458791  0.62504845  0.06766006     0.18300
C2677       C  0.86903623  0.61233969  0.08576345     0.15500
C2678       C  0.87188230  0.61386793  0.12523788    -0.19000
C2679       C  0.88041100  0.59835972  0.06401519    -0.20800
C2680       C  0.87776955  0.59725122  0.02462207    -0.13400
C2681       C  0.86353501  0.60994032  0.00618802     0.03300
C2682       C  0.85181811  0.62366273  0.02823506    -0.25500
H2683       H  0.83708233  0.65150697  0.14419188     0.08400
H2684       H  0.83216629  0.64903544  0.07575225     0.12000
H2685       H  0.88284545  0.60389642  0.13898703     0.11900
H2686       H  0.89154860  0.58845003  0.07740878     0.11700
H2687       H  0.88704062  0.58659204  0.00854376     0.12200
H2688       H  0.84086410  0.63371687  0.01465626     0.14200
C2689       C  0.62762276  0.72098333  0.59620981    -0.05800
C2690       C  0.62940162  0.73366072  0.62801998    -0.05800
C2691       C  0.62988753  0.75496033  0.62342753    -0.23900
C2692       C  0.62906122  0.76366719  0.58693118     0.18300
C2693       C  0.62839218  0.75086611  0.55472615     0.15500
C2694       C  0.62747400  0.72964181  0.55965009    -0.19000
C2695       C  0.62828633  0.75952111  0.51818781    -0.20800
C2696       C  0.62803534  0.78080869  0.51356870    -0.13400
C2697       C  0.62751933  0.79355963  0.54544009     0.03300
C2698       C  0.62844911  0.78493393  0.58202626    -0.25500
H2699       H  0.62981163  0.72713072  0.65625692     0.08400
H2700       H  0.63066609  0.76462226  0.64835827     0.12000
H2701       H  0.62662974  0.71976653  0.53495631     0.11900
H2702       H  0.62802136  0.74982753  0.49325522     0.11700
H2703       H  0.62743112  0.78728123  0.48530373     0.12200
H2704       H  0.62839860  0.79485372  0.60670689     0.14200
C2705       C  0.64280890  0.53535669  0.53556972    -0.05800
C2706       C  0.66192784  0.52571143  0.53222643    -0.05800
C2707       C  0.66324471  0.50455842  0.52754000    -0.23900
C2708       C  0.64546434  0.49260275  0.52669299     0.18300
C2709       C  0.62613589  0.50202845  0.53077558     0.15500
C2710       C  0.62490261  0.52341163  0.53483919    -0.19000
C2711       C  0.60842881  0.48987845  0.53056409    -0.20800
C2712       C  0.60984206  0.46865869  0.52546982    -0.13400
C2713       C  0.62898563  0.45922504  0.52034819     0.03300
C2714       C  0.64675321  0.47138307  0.52146467    -0.25500
H2715       H  0.67591585  0.53460292  0.53275599     0.08400
H2716       H  0.67818114  0.49755360  0.52454587     0.12000
H2717       H  0.61010178  0.53070380  0.53795777     0.11900
H2718       H  0.59347994  0.49680561  0.53389709     0.11700
H2719       H  0.59590355  0.45971121  0.52463797     0.12200
H2720       H  0.66166338  0.46438946  0.51782287     0.14200
C2721       C  0.47058145  0.64053666  0.48103511    -0.05800
C2722       C  0.48051608  0.65961624  0.48263858    -0.05800
C2723       C  0.50161673  0.66080338  0.48820199    -0.23900
C2724       C  0.51330121  0.64291126  0.49152299     0.18300
C2725       C  0.50359483  0.62360290  0.48947288     0.15500
C2726       C  0.48224138  0.62252523  0.48480549    -0.19000
C2727       C  0.51546200  0.60574564  0.49187454    -0.20800
C2728       C  0.53665840  0.60700541  0.49705247    -0.13400
C2729       C  0.54638214  0.62614683  0.50032730     0.03300
C2730       C  0.53451840  0.64405678  0.49707697    -0.25500
H2731       H  0.47190683  0.67369598  0.47973050     0.08400
H2732       H  0.50881872  0.67573371  0.48961344     0.12000
H2733       H  0.47479664  0.60771724  0.48307265     0.11900
H2734       H  0.50832925  0.59079652  0.49011856     0.11700
H2735       H  0.54533713  0.59296016  0.49971958     0.12200
H2736       H  0.54174027  0.65895350  0.49939183     0.14200
C2737       C  0.71652389  0.62748433  0.66287585    -0.05800
C2738       C  0.72431494  0.64641137  0.67539710    -0.05800
C2739       C  0.74267806  0.64747243  0.69543000    -0.23900
C2740       C  0.75359973  0.62960941  0.70386348     0.18300
C2741       C  0.74595838  0.61043545  0.69186564     0.15500
C2742       C  0.72757951  0.60948986  0.67114077    -0.19000
C2743       C  0.75677789  0.59256051  0.70108962    -0.20800
C2744       C  0.77499001  0.59369493  0.72182120    -0.13400
C2745       C  0.78290087  0.61274497  0.73335069     0.03300
C2746       C  0.77200736  0.63065776  0.72420737    -0.25500
H2747       H  0.71624882  0.66053626  0.66954265     0.08400
H2748       H  0.74828656  0.66229846  0.70450150     0.12000
H2749       H  0.72175917  0.59475386  0.66200675     0.11900
H2750       H  0.75115803  0.57769554  0.69228772     0.11700
H2751       H  0.78305699  0.57964548  0.72830129     0.12200
H2752       H  0.77777677  0.64546489  0.73307174     0.14200
C2753       C  0.62613127  0.79528857  0.02928276    -0.05800
C2754       C  0.60978995  0.78375392  0.01511899    -0.05800
C2755       C  0.60741537  0.76331896  0.02562787    -0.23900
C2756       C  0.62104590  0.75427958  0.05132968     0.18300
C2757       C  0.63784800  0.76550758  0.06523589     0.15500
C2758       C  0.64046252  0.78597472  0.05364481    -0.19000
C2759       C  0.65126778  0.75618980  0.09123892    -0.20800
C2760       C  0.64829115  0.73574439  0.10255928    -0.13400
C2761       C  0.63166003  0.72444068  0.08847993     0.03300
C2762       C  0.61794327  0.73416259  0.06337263    -0.25500
H2763       H  0.59839144  0.79084067  0.99713793     0.08400
H2764       H  0.59449113  0.75478720  0.01468834     0.12000
H2765       H  0.65274516  0.79505815  0.06560498     0.11900
H2766       H  0.66420255  0.76461371  0.10238662     0.11700
H2767       H  0.65922923  0.72866495  0.12148195     0.12200
H2768       H  0.60500290  0.72587600  0.05185961     0.14200
C2769       C  0.63527937  0.45872404  0.02969433    -0.05800
C2770       C  0.65376457  0.46638732  0.04425852    -0.05800
C2771       C  0.65567197  0.48695755  0.05449318    -0.23900
C2772       C  0.63928872  0.50047945  0.04945828     0.18300
C2773       C  0.62042784  0.49293449  0.03568668     0.15500
C2774       C  0.61840513  0.47201089  0.02655098    -0.19000
C2775       C  0.60422967  0.50662665  0.02981841    -0.20800
C2776       C  0.60701322  0.52763846  0.03572410    -0.13400
C2777       C  0.62593551  0.53539944  0.04830431     0.03300
C2778       C  0.64179450  0.52154718  0.05635537    -0.25500
H2779       H  0.66690452  0.45644405  0.04740660     0.08400
H2780       H  0.67020617  0.49242651  0.06517283     0.12000
H2781       H  0.60408043  0.46632011  0.01525745     0.11900
H2782       H  0.58960699  0.50118134  0.01950702     0.11700
H2783       H  0.59437099  0.53786646  0.02990989     0.12200
H2784       H  0.65642509  0.52723801  0.06619951     0.14200
C2785       C  0.54753708  0.63711995  0.98952203    -0.05800
C2786       C  0.54002101  0.65529623  0.97338663    -0.05800
C2787       C  0.51919422  0.65752612  0.96577035    -0.23900
C2788       C  0.50546835  0.64177797  0.97493445     0.18300
C2789       C  0.51291052  0.62335664  0.99082518     0.15500
C2790       C  0.53392911  0.62101527  0.99744184    -0.19000
C2791       C  0.49913898  0.60781548  0.00082623    -0.20800
C2792       C  0.47816603  0.61052377  0.99535148    -0.13400
C2793       C  0.47054730  0.62877154  0.97948118     0.03300
C2794       C  0.48440238  0.64429960  0.96909443    -0.25500
H2795       H  0.55024099  0.66794970  0.96731945     0.08400
H2796       H  0.51376118  0.67176167  0.95362659     0.12000
H2797       H  0.53953612  0.60710229  0.01061560     0.11900
H2798       H  0.50456854  0.59361933  0.01314093     0.11700
H2799       H  0.46792433  0.59820020  0.00327637     0.12200
H2800       H  0.47881108  0.65845233  0.95683343     0.14200
C2801       C  0.63374495  0.63749576  0.75170928    -0.05800
C2802       C  0.64873731  0.64950962  0.76959902    -0.05800
C2803       C  0.65165940  0.64827410  0.80887081    -0.23900
C2804       C  0.63970239  0.63494744  0.83100545     0.18300
C2805       C  0.62447185  0.62295844  0.81349013     0.15500
C2806       C  0.62149744  0.62441108  0.77416344    -0.19000
C2807       C  0.61259922  0.60953351  0.83553851    -0.20800
C2808       C  0.61561832  0.60814868  0.87474727    -0.13400
C2809       C  0.63060090  0.62013939  0.89271156     0.03300
C2810       C  0.64269238  0.63344391  0.87035266    -0.25500
H2811       H  0.65853859  0.65953481  0.75315535     0.08400
H2812       H  0.66344956  0.65756759  0.82187126     0.12000
H2813       H  0.60986968  0.61497104  0.76099914     0.11900
H2814       H  0.60088753  0.60016553  0.82247629     0.11700
H2815       H  0.60602951  0.59785796  0.89105194     0.12200
H2816       H  0.65427553  0.64291854  0.88356087     0.14200
C2817       C  0.63131994  0.64182117  0.25115370    -0.05800
C2818       C  0.64566057  0.65451435  0.26923388    -0.05800
C2819       C  0.64911679  0.65277318  0.30828543    -0.23900
C2820       C  0.63839667  0.63822655  0.32996067     0.18300
C2821       C  0.62395257  0.62540091  0.31223077     0.15500
C2822       C  0.62043833  0.62734467  0.27315281    -0.19000
C2823       C  0.61332705  0.61076303  0.33384923    -0.20800
C2824       C  0.61670213  0.60910314  0.37293603    -0.13400
C2825       C  0.63085661  0.62198008  0.39111607     0.03300
C2826       C  0.64180236  0.63639079  0.36910341    -0.25500
H2827       H  0.65444793  0.66558213  0.25312402     0.08400
H2828       H  0.66030740  0.66270258  0.32149440     0.12000
H2829       H  0.60948628  0.61719390  0.25981199     0.11900
H2830       H  0.60225180  0.60072298  0.32058406     0.11700
H2831       H  0.60802137  0.59792313  0.38898067     0.12200
H2832       H  0.65278254  0.64650252  0.38245893     0.14200
C2833       C  0.71274372  0.62469392  0.16533017    -0.05800
C2834       C  0.72304317  0.64348008  0.16983725    -0.05800
C2835       C  0.74139098  0.64464087  0.18973991    -0.23900
C2836       C  0.74993096  0.62706228  0.20593421     0.18300
C2837       C  0.73992383  0.60801078  0.20191703     0.15500
C2838       C  0.72137721  0.60688893  0.18144306    -0.19000
C2839       C  0.74871330  0.59052598  0.21851086    -0.20800
C2840       C  0.76725894  0.59191938  0.23844997    -0.13400
C2841       C  0.77739256  0.61083900  0.24228516     0.03300
C2842       C  0.76840696  0.62834832  0.22594013    -0.25500
H2843       H  0.71694863  0.65744178  0.15773554     0.08400
H2844       H  0.74890255  0.65936389  0.19250158     0.12000
H2845       H  0.71357919  0.59232629  0.17854526     0.11900
H2846       H  0.74131413  0.57574821  0.21588954     0.11700
H2847       H  0.77375351  0.57814119  0.25053988     0.12200
H2848       H  0.77585493  0.64311681  0.22844127     0.14200
C2849       C  0.27986126  0.85377568  0.69416740    -0.05800
C2850       C  0.26814013  0.84910473  0.72641300    -0.05800
C2851       C  0.24689532  0.84694628  0.72356198    -0.23900
C2852       C  0.23714327  0.84913882  0.68831882     0.18300
C2853       C  0.24898836  0.85242657  0.65531317     0.15500
C2854       C  0.27025642  0.85481409  0.65850481    -0.19000
C2855       C  0.23923948  0.85422674  0.61996365    -0.20800
C2856       C  0.21784711  0.85414368  0.61767253    -0.13400
C2857       C  0.20600418  0.85227577  0.65068063     0.03300
C2858       C  0.21572489  0.84915594  0.68575748    -0.25500
H2859       H  0.27530014  0.84802056  0.75401889     0.08400
H2860       H  0.23803305  0.84417870  0.74906491     0.12000
H2861       H  0.27931321  0.85797061  0.63335965     0.11900
H2862       H  0.24812778  0.85655917  0.59434261     0.11700
H2863       H  0.21057020  0.85674554  0.59052672     0.12200
H2864       H  0.20655010  0.84774919  0.71130226     0.14200
C2865       C  0.02053464  0.87247920  0.71869879    -0.05800
C2866       C  0.01351457  0.89179361  0.73071986    -0.05800
C2867       C  0.99259385  0.89578329  0.73413500    -0.23900
C2868       C  0.97822487  0.88046165  0.72614311     0.18300
C2869       C  0.98499758  0.86097435  0.71407661     0.15500
C2870       C  0.00605577  0.85716465  0.71010734    -0.19000
C2871       C  0.97060126  0.84549005  0.70707932    -0.20800
C2872       C  0.94980808  0.84897243  0.71387261    -0.13400
C2873       C  0.94299416  0.86815009  0.72684335     0.03300
C2874       C  0.95726035  0.88405965  0.73158637    -0.25500
H2875       H  0.02420589  0.90397859  0.73708023     0.08400
H2876       H  0.98766343  0.91079893  0.74350030     0.12000
H2877       H  0.01114502  0.84219929  0.70073547     0.11900
H2878       H  0.97548887  0.83046614  0.69770042     0.11700
H2879       H  0.93910094  0.83648152  0.71005451     0.12200
H2880       H  0.95222822  0.89883911  0.74205680     0.14200
C2881       C  0.12511023  0.95329579  0.73506136    -0.05800
C2882       C  0.10725642  0.96509732  0.73897155    -0.05800
C2883       C  0.10842428  0.98602349  0.74689042    -0.23900
C2884       C  0.12746693  0.99555385  0.75155881     0.18300
C2885       C  0.14556665  0.98391957  0.74795420     0.15500
C2886       C  0.14429223  0.96292498  0.73931840    -0.19000
C2887       C  0.16458532  0.99346529  0.75350938    -0.20800
C2888       C  0.16562438  0.01428463  0.76295813    -0.13400
C2889       C  0.14769254  0.02601026  0.76624348     0.03300
C2890       C  0.12865701  0.01649270  0.76019788    -0.25500
H2891       H  0.09231513  0.95818612  0.73556090     0.08400
H2892       H  0.09439943  0.99473635  0.74961071     0.12000
H2893       H  0.15821956  0.95405311  0.73649234     0.11900
H2894       H  0.17863961  0.98479262  0.75089673     0.11700
H2895       H  0.18045736  0.02127602  0.76730807     0.12200
H2896       H  0.11468463  0.02529719  0.76303120     0.14200
C2897       C  0.28096015  0.84914909  0.20106665    -0.05800
C2898       C  0.26929372  0.84660736  0.23414545    -0.05800
C2899       C  0.24791363  0.84551468  0.23203820    -0.23900
C2900       C  0.23798004  0.84661904  0.19675391     0.18300
C2901       C  0.24972580  0.84777350  0.16315575     0.15500
C2902       C  0.27109226  0.84925406  0.16558314    -0.19000
C2903       C  0.23985343  0.84821211  0.12779196    -0.20800
C2904       C  0.21847763  0.84866553  0.12578727    -0.13400
C2905       C  0.20674301  0.84908963  0.15909493     0.03300
C2906       C  0.21654608  0.84747220  0.19449713    -0.25500
H2907       H  0.27662855  0.84651815  0.26165824     0.08400
H2908       H  0.23912416  0.84439625  0.25804700     0.12000
H2909       H  0.28007171  0.85102345  0.13987552     0.11900
H2910       H  0.24866706  0.84884662  0.10175130     0.11700
H2911       H  0.21115715  0.84987833  0.09834580     0.12200
H2912       H  0.20747374  0.84757419  0.22029110     0.14200
C2913       C  0.94538109  0.87907425  0.23660278    -0.05800
C2914       C  0.95614793  0.89772139  0.23456419    -0.05800
C2915       C  0.97743755  0.89788138  0.22973156    -0.23900
C2916       C  0.98829488  0.87940349  0.22665514     0.18300
C2917       C  0.97743096  0.86068257  0.22717581     0.15500
C2918       C  0.95618840  0.86064871  0.23204890    -0.19000
C2919       C  0.98797847  0.84216648  0.22341641    -0.20800
C2920       C  0.00913947  0.84210089  0.21909905    -0.13400
C2921       C  0.02026758  0.86052138  0.21891960     0.03300
C2922       C  0.00975103  0.87921724  0.22299244    -0.25500
H2923       H  0.94823901  0.91215849  0.23820030     0.08400
H2924       H  0.98543159  0.91241758  0.22908542     0.12000
H2925       H  0.94813123  0.84614457  0.23330187     0.11900
H2926       H  0.97984749  0.82770067  0.22368303     0.11700
H2927       H  0.01685329  0.82752407  0.21590781     0.12200
H2928       H  0.01815405  0.89353121  0.22232509     0.14200
C2929       C  0.12125309  0.94739000  0.24312157    -0.05800
C2930       C  0.10478033  0.96028951  0.23410881    -0.05800
C2931       C  0.10617348  0.98138775  0.24013368    -0.23900
C2932       C  0.12397826  0.98987560  0.25570161     0.18300
C2933       C  0.14030174  0.97688550  0.26620739     0.15500
C2934       C  0.13888011  0.95575432  0.25969063    -0.19000
C2935       C  0.15793977  0.98528745  0.28239329    -0.20800
C2936       C  0.15962032  0.00642323  0.28737950    -0.13400
C2937       C  0.14371278  0.01962195  0.27619781     0.03300
C2938       C  0.12581161  0.01113045  0.26059132    -0.25500
H2939       H  0.09109174  0.95413688  0.22113301     0.08400
H2940       H  0.09346066  0.99108742  0.23209272     0.12000
H2941       H  0.15156988  0.94584287  0.26705639     0.11900
H2942       H  0.17051821  0.97553026  0.29092243     0.11700
H2943       H  0.17350168  0.01242271  0.29985417     0.12200
H2944       H  0.11329173  0.02100479  0.25221744     0.14200
C2945       C  0.10789496  0.86678454  0.85673748    -0.05800
C2946       C  0.09390396  0.87943536  0.87582961    -0.05800
C2947       C  0.09485162  0.88162212  0.91522865    -0.23900
C2948       C  0.10988865  0.87130388  0.93619772     0.18300
C2949       C  0.12405460  0.85854897  0.91744455     0.15500
C2950       C  0.12290884  0.85629095  0.87793727    -0.19000
C2951       C  0.13908716  0.84825607  0.93855357    -0.20800
C2952       C  0.13973864  0.85018893  0.97810319    -0.13400
C2953       C  0.12545924  0.86257096  0.99714090     0.03300
C2954       C  0.11078817  0.87335289  0.97568995    -0.25500
H2955       H  0.08222102  0.88765177  0.86031362     0.08400
H2956       H  0.08383450  0.89142389  0.92930868     0.12000
H2957       H  0.13394206  0.84656225  0.86369873     0.11900
H2958       H  0.15015783  0.83849120  0.92453011     0.11700
H2959       H  0.15121564  0.84178037  0.99379464     0.12200
H2960       H  0.09958020  0.88295026  0.98975834     0.14200
C2961       C  0.10355416  0.86270515  0.35547747    -0.05800
C2962       C  0.09155968  0.87802470  0.37257527    -0.05800
C2963       C  0.09238347  0.88124379  0.41171809    -0.23900
C2964       C  0.10531713  0.86930041  0.43441368     0.18300
C2965       C  0.11752099  0.85397092  0.41752830     0.15500
C2966       C  0.11647905  0.85069707  0.37833618    -0.19000
C2967       C  0.13065552  0.84220137  0.44008771    -0.20800
C2968       C  0.13146024  0.84534214  0.47922630    -0.13400
C2969       C  0.11914464  0.86032358  0.49653660     0.03300
C2970       C  0.10619549  0.87237685  0.47371841    -0.25500
H2971       H  0.08164226  0.88765893  0.35567985     0.08400
H2972       H  0.08298991  0.89314334  0.42420083     0.12000
H2973       H  0.12605069  0.83900042  0.36563220     0.11900
H2974       H  0.14021088  0.83046387  0.42749937     0.11700
H2975       H  0.14156794  0.83583881  0.49597631     0.12200
H2976       H  0.09660621  0.88403468  0.48649535     0.14200
C2977       C  0.21178662  0.63581696  0.95723023    -0.05800
C2978       C  0.22353844  0.64030597  0.98936229    -0.05800
C2979       C  0.24471124  0.64284361  0.98600926    -0.23900
C2980       C  0.25426923  0.64126217  0.95038993     0.18300
C2981       C  0.24235756  0.63803503  0.91758917     0.15500
C2982       C  0.22122284  0.63520371  0.92129321    -0.19000
C2983       C  0.25189697  0.63691588  0.88185716    -0.20800
C2984       C  0.27323224  0.63777297  0.87890978    -0.13400
C2985       C  0.28514481  0.63961674  0.91168014     0.03300
C2986       C  0.27559114  0.64194815  0.94717978    -0.25500
H2987       H  0.21647850  0.64100413  0.01715503     0.08400
H2988       H  0.25366837  0.64553153  0.01134488     0.12000
H2989       H  0.21211794  0.63213859  0.89624560     0.11900
H2990       H  0.24291371  0.63462784  0.85641898     0.11700
H2991       H  0.28043932  0.63578822  0.85146145     0.12200
H2992       H  0.28487041  0.64338403  0.97251501     0.14200
C2993       C  0.02565126  0.62522594  0.90275971    -0.05800
C2994       C  0.01793834  0.60713636  0.88635072    -0.05800
C2995       C  0.99688265  0.60365230  0.88409352    -0.23900
C2996       C  0.98304951  0.61826053  0.89787823     0.18300
C2997       C  0.99055563  0.63655767  0.91415909     0.15500
C2998       C  0.01174645  0.63986027  0.91671822    -0.19000
C2999       C  0.97672555  0.65141684  0.92707337    -0.20800
C3000       C  0.95569359  0.64853869  0.92260429    -0.13400
C3001       C  0.94808200  0.63053417  0.90606718     0.03300
C3002       C  0.96185285  0.61519285  0.89457546    -0.25500
H3003       H  0.02819016  0.59544638  0.87572088     0.08400
H3004       H  0.99142643  0.58956543  0.87139500     0.12000
H3005       H  0.01737740  0.65386247  0.92948339     0.11900
H3006       H  0.98219080  0.66554020  0.93959233     0.11700
H3007       H  0.94534133  0.66061871  0.93125548     0.12200
H3008       H  0.95613106  0.60144945  0.88096089     0.14200
C3009       C  0.10019806  0.77930018  0.08591363    -0.05800
C3010       C  0.08120240  0.77246934  0.07212031    -0.05800
C3011       C  0.07939768  0.75320955  0.05493114    -0.23900
C3012       C  0.09649640  0.74033950  0.05176456     0.18300
C3013       C  0.11547950  0.74699223  0.06647713     0.15500
C3014       C  0.11723446  0.76636514  0.08309549    -0.19000
C3015       C  0.13252834  0.73421052  0.06433723    -0.20800
C3016       C  0.13099551  0.71513053  0.04715076    -0.13400
C3017       C  0.11237601  0.70829914  0.03144546     0.03300
C3018       C  0.09504821  0.72102017  0.03411799    -0.25500
H3019       H  0.06778754  0.78212401  0.07423093     0.08400
H3020       H  0.06466212  0.74840214  0.04412275     0.12000
H3021       H  0.13187536  0.77126596  0.09429306     0.11900
H3022       H  0.14713851  0.73901685  0.07576200     0.11700
H3023       H  0.14466390  0.70581762  0.04587976     0.12200
H3024       H  0.08057893  0.71598948  0.02243051     0.14200
C3025       C  0.28438572  0.63439332  0.41597694    -0.05800
C3026       C  0.27289434  0.63153803  0.38294038    -0.05800
C3027       C  0.25154838  0.63147104  0.38467100    -0.23900
C3028       C  0.24146965  0.63454208  0.41941344     0.18300
C3029       C  0.25292783  0.63828386  0.45260915     0.15500
C3030       C  0.27438111  0.63801386  0.45070214    -0.19000
C3031       C  0.24269674  0.64169832  0.48716559    -0.20800
C3032       C  0.22129228  0.64075811  0.48899875    -0.13400
C3033       C  0.20990937  0.63612654  0.45640000     0.03300
C3034       C  0.22013093  0.63342528  0.42159873    -0.25500
H3035       H  0.28044721  0.62858079  0.35611683     0.08400
H3036       H  0.24292486  0.62863623  0.35899111     0.12000
H3037       H  0.28333119  0.64027402  0.47622482     0.11900
H3038       H  0.25125514  0.64473069  0.51284054     0.11700
H3039       H  0.21369952  0.64293263  0.51603540     0.12200
H3040       H  0.21142905  0.63017938  0.39614223     0.14200
C3041       C  0.94462955  0.63799429  0.40262129    -0.05800
C3042       C  0.95256820  0.65639031  0.41700274    -0.05800
C3043       C  0.97362122  0.65866904  0.42257593    -0.23900
C3044       C  0.98710647  0.64282484  0.41263102     0.18300
C3045       C  0.97920596  0.62435861  0.39772651     0.15500
C3046       C  0.95802822  0.62192013  0.39352467    -0.19000
C3047       C  0.99263939  0.60882617  0.38634815    -0.20800
C3048       C  0.01374239  0.61152872  0.38964748    -0.13400
C3049       C  0.02187976  0.62972055  0.40485943     0.03300
C3050       C  0.00835474  0.64527540  0.41660307    -0.25500
H3051       H  0.94247572  0.66905109  0.42361817     0.08400
H3052       H  0.97939287  0.67299310  0.43377322     0.12000
H3053       H  0.95203763  0.60788681  0.38139142     0.11900
H3054       H  0.98683533  0.59463161  0.37462139     0.11700
H3055       H  0.02369474  0.59919914  0.38064865     0.12200
H3056       H  0.01434109  0.65939771  0.42831385     0.14200
C3057       C  0.12609710  0.63064536  0.61726550    -0.05800
C3058       C  0.14160279  0.64200561  0.63517639    -0.05800
C3059       C  0.14188178  0.64413875  0.67471626    -0.23900
C3060       C  0.12656569  0.63509615  0.69714781     0.18300
C3061       C  0.11090659  0.62368762  0.67949932     0.15500
C3062       C  0.11077855  0.62152523  0.63986907    -0.19000
C3063       C  0.09558774  0.61460568  0.70176679    -0.20800
C3064       C  0.09579558  0.61668778  0.74121967    -0.13400
C3065       C  0.11122884  0.62803711  0.75928604     0.03300
C3066       C  0.12661919  0.63724077  0.73687411    -0.25500
H3067       H  0.15355620  0.64925777  0.61862874     0.08400
H3068       H  0.15404174  0.65293255  0.68773279     0.12000
H3069       H  0.09857694  0.61286037  0.62666105     0.11900
H3070       H  0.08345603  0.60580779  0.68866922     0.11700
H3071       H  0.08380335  0.60940088  0.75761734     0.12200
H3072       H  0.13879267  0.64584517  0.75030792     0.14200
C3073       C  0.10557715  0.63352912  0.25773201    -0.05800
C3074       C  0.10253394  0.65205880  0.23820386    -0.05800
C3075       C  0.10645946  0.65357318  0.19929100    -0.23900
C3076       C  0.11395447  0.63666382  0.17913983     0.18300
C3077       C  0.11678665  0.61781224  0.19832681     0.15500
C3078       C  0.11234543  0.61628500  0.23741731    -0.19000
C3079       C  0.12434872  0.60091986  0.17817709    -0.20800
C3080       C  0.12850718  0.60250534  0.13935141    -0.13400
C3081       C  0.12558533  0.62107509  0.11994658     0.03300
C3082       C  0.11853154  0.63823509  0.14013094    -0.25500
H3083       H  0.09768075  0.66561697  0.25346340     0.08400
H3084       H  0.10412954  0.66812825  0.18517770     0.12000
H3085       H  0.11525648  0.60208084  0.25240254     0.11900
H3086       H  0.12669199  0.58636545  0.19227694     0.11700
H3087       H  0.13355621  0.58901574  0.12409880     0.12200
H3088       H  0.11569888  0.65245958  0.12514675     0.14200
C3089       C  0.10975448  0.71095667  0.53497893    -0.05800
C3090       C  0.12884217  0.71860894  0.54706396    -0.05800
C3091       C  0.13045195  0.73751245  0.56494359    -0.23900
C3092       C  0.11301766  0.74932095  0.57151990     0.18300
C3093       C  0.09358540  0.74173339  0.56100127     0.15500
C3094       C  0.09203310  0.72256222  0.54262373    -0.19000
C3095       C  0.07618306  0.75366194  0.56861419    -0.20800
C3096       C  0.07812701  0.77303636  0.58547895    -0.13400
C3097       C  0.09752092  0.78092260  0.59473007     0.03300
C3098       C  0.11486133  0.76874512  0.58803183    -0.25500
H3099       H  0.14283147  0.71017793  0.54204228     0.08400
H3100       H  0.14544012  0.74302258  0.57316216     0.12000
H3101       H  0.07719553  0.71685814  0.53397151     0.11900
H3102       H  0.06110198  0.74811814  0.56116708     0.11700
H3103       H  0.06447896  0.78201056  0.59060428     0.12200
H3104       H  0.12990817  0.77438691  0.59560258     0.14200
C3105       C  0.13606255  0.28177534  0.79285471    -0.05800
C3106       C  0.11869205  0.27110931  0.78061772    -0.05800
C3107       C  0.11569741  0.25076729  0.79122797    -0.23900
C3108       C  0.12982602  0.24096906  0.81495788     0.18300
C3109       C  0.14757045  0.25141797  0.82691728     0.15500
C3110       C  0.15073070  0.27174488  0.81529624    -0.19000
C3111       C  0.16153838  0.24146309  0.85089707    -0.20800
C3112       C  0.15836312  0.22101541  0.86156403    -0.13400
C3113       C  0.14097467  0.21035714  0.84895975     0.03300
C3114       C  0.12649592  0.22079461  0.82656699    -0.25500
H3115       H  0.10702494  0.27882899  0.76418396     0.08400
H3116       H  0.10203265  0.24289007  0.78180535     0.12000
H3117       H  0.16382027  0.28019716  0.82584040     0.11900
H3118       H  0.17514344  0.24932393  0.86063721     0.11700
H3119       H  0.16983182  0.21336043  0.87854027     0.12200
H3120       H  0.11298859  0.21292893  0.81634342     0.14200
C3121       C  0.14729263  0.46596556  0.86050099    -0.05800
C3122       C  0.16510580  0.47790881  0.85782204    -0.05800
C3123       C  0.16400471  0.49918643  0.85948714    -0.23900
C3124       C  0.14504299  0.50889830  0.86346085     0.18300
C3125       C  0.12694504  0.49711882  0.86544511     0.15500
C3126       C  0.12818759  0.47568943  0.86422698    -0.19000
C3127       C  0.10798394  0.50700155  0.86895310    -0.20800
C3128       C  0.10705848  0.52833704  0.87189513    -0.13400
C3129       C  0.12508803  0.54005599  0.87149232     0.03300
C3130       C  0.14398777  0.53020389  0.86632896    -0.25500
H3131       H  0.17996914  0.47077434  0.85480148     0.08400
H3132       H  0.17800061  0.50804102  0.85785349     0.12000
H3133       H  0.11430915  0.46662885  0.86575353     0.11900
H3134       H  0.09393573  0.49822043  0.87027451     0.11700
H3135       H  0.09232364  0.53557164  0.87605898     0.12200
H3136       H  0.15801147  0.53907354  0.86566709     0.14200
C3137       C  0.14786119  0.20539195  0.34953523    -0.05800
C3138       C  0.14219370  0.21742305  0.38064872    -0.05800
C3139       C  0.14249785  0.23879456  0.37786945    -0.23900
C3140       C  0.14840285  0.24837879  0.34383961     0.18300
C3141       C  0.15514731  0.23643493  0.31291524     0.15500
C3142       C  0.15479821  0.21492948  0.31597912    -0.19000
C3143       C  0.16136002  0.24624801  0.27917388    -0.20800
C3144       C  0.15990669  0.26765083  0.27550243    -0.13400
C3145       C  0.15199779  0.27944790  0.30537701     0.03300
C3146       C  0.14691145  0.26967149  0.33983895    -0.25500
H3147       H  0.13681701  0.21027864  0.40655492     0.08400
H3148       H  0.13747316  0.24782372  0.40192524     0.12000
H3149       H  0.15921743  0.20557783  0.29190700     0.11900
H3150       H  0.16684740  0.23732983  0.25533040     0.11700
H3151       H  0.16422139  0.27485929  0.24899304     0.12200
H3152       H  0.14135241  0.27868102  0.36355425     0.14200
C3153       C  0.14012431  0.46693966  0.36748033    -0.05800
C3154       C  0.15813434  0.47864659  0.36931424    -0.05800
C3155       C  0.15733720  0.49985298  0.37312334    -0.23900
C3156       C  0.13848630  0.50993476  0.37474777     0.18300
C3157       C  0.12014287  0.49852191  0.37326809     0.15500
C3158       C  0.12104855  0.47697159  0.36995271    -0.19000
C3159       C  0.10135296  0.50897009  0.37483143    -0.20800
C3160       C  0.10082954  0.53042908  0.37791570    -0.13400
C3161       C  0.11909019  0.54183543  0.37949240     0.03300
C3162       C  0.13783799  0.53130708  0.37780130    -0.25500
H3163       H  0.17298298  0.47134226  0.36776611     0.08400
H3164       H  0.17152640  0.50840439  0.37443696     0.12000
H3165       H  0.10704486  0.46813091  0.36829666     0.11900
H3166       H  0.08708018  0.50055748  0.37381148     0.11700
H3167       H  0.08615175  0.53804881  0.37963680     0.12200
H3168       H  0.15210792  0.53973724  0.37905751     0.14200
C3169       C  0.13986203  0.37754902  0.50791309    -0.05800
C3170       C  0.12281192  0.38668610  0.52534246    -0.05800
C3171       C  0.11992799  0.38515378  0.56452528    -0.23900
C3172       C  0.13406078  0.37448858  0.58695473     0.18300
C3173       C  0.15111561  0.36503004  0.56975803     0.15500
C3174       C  0.15391075  0.36662701  0.53047285    -0.19000
C3175       C  0.16521063  0.35429561  0.59218322    -0.20800
C3176       C  0.16275039  0.35343714  0.63153106    -0.13400
C3177       C  0.14617155  0.36332184  0.64905604     0.03300
C3178       C  0.13164838  0.37349459  0.62638289    -0.25500
H3179       H  0.11162339  0.39494006  0.50868615     0.08400
H3180       H  0.10670409  0.39240970  0.57731016     0.12000
H3181       H  0.16710939  0.35937315  0.51756434     0.11900
H3182       H  0.17834685  0.34689801  0.57937068     0.11700
H3183       H  0.17419728  0.34562701  0.64832257     0.12200
H3184       H  0.11868823  0.38109196  0.63946416     0.14200
C3185       C  0.14031848  0.37802662  0.00865500    -0.05800
C3186       C  0.12473814  0.38936480  0.02641587    -0.05800
C3187       C  0.12168914  0.38795950  0.06563414    -0.23900
C3188       C  0.13415652  0.37518667  0.08776408     0.18300
C3189       C  0.14992595  0.36384672  0.07031989     0.15500
C3190       C  0.15295394  0.36540391  0.03107832    -0.19000
C3191       C  0.16242779  0.35109867  0.09238383    -0.20800
C3192       C  0.15964016  0.34992229  0.13163567    -0.13400
C3193       C  0.14426098  0.36143809  0.14952061     0.03300
C3194       C  0.13132263  0.37379621  0.12710485    -0.25500
H3195       H  0.11471183  0.39910306  0.00995728     0.08400
H3196       H  0.10952798  0.39679732  0.07862946     0.12000
H3197       H  0.16508056  0.35654287  0.01801224     0.11900
H3198       H  0.17457195  0.34226049  0.07934621     0.11700
H3199       H  0.16987795  0.34039345  0.14806392     0.12200
H3200       H  0.11937478  0.38284872  0.14029852     0.14200
C3201       C  0.38001804  0.28487877  0.60106985    -0.05800
C3202       C  0.39735937  0.27465951  0.61458790    -0.05800
C3203       C  0.40083207  0.25424818  0.60511850    -0.23900
C3204       C  0.38722531  0.24387741  0.58119694     0.18300
C3205       C  0.36937812  0.25376821  0.56819745     0.15500
C3206       C  0.36572613  0.27424195  0.57866632    -0.19000
C3207       C  0.35596573  0.24318618  0.54399956    -0.20800
C3208       C  0.35999848  0.22284276  0.53353342    -0.13400
C3209       C  0.37762715  0.21283052  0.54675966     0.03300
C3210       C  0.39133526  0.22376718  0.57003409    -0.25500
H3211       H  0.40876136  0.28284186  0.63090439     0.08400
H3212       H  0.41456684  0.24680961  0.61534307     0.12000
H3213       H  0.35267010  0.28233473  0.56710176     0.11900
H3214       H  0.34222320  0.25053625  0.53361947     0.11700
H3215       H  0.34900250  0.21476449  0.51615587     0.12200
H3216       H  0.40500931  0.21642197  0.58079317     0.14200
C3217       C  0.46151347  0.37646196  0.49768022    -0.05800
C3218       C  0.47129500  0.39549566  0.49281633    -0.05800
C3219       C  0.49265606  0.39674812  0.49099988    -0.23900
C3220       C  0.50462872  0.37899580  0.49400006     0.18300
C3221       C  0.49489470  0.35973277  0.49715628     0.15500
C3222       C  0.47350185  0.35858661  0.49872508    -0.19000
C3223       C  0.50671360  0.34190390  0.49958888    -0.20800
C3224       C  0.52800619  0.34310018  0.49892800    -0.13400
C3225       C  0.53792476  0.36214857  0.49632982     0.03300
C3226       C  0.52612441  0.38011697  0.49399921    -0.25500
H3227       H  0.46249975  0.40953705  0.49208903     0.08400
H3228       H  0.49981502  0.41164375  0.48820553     0.12000
H3229       H  0.46623545  0.34377099  0.50218832     0.11900
H3230       H  0.49949057  0.32701348  0.50190666     0.11700
H3231       H  0.53678518  0.32905572  0.50032129     0.12200
H3232       H  0.53364373  0.39484025  0.49109953     0.14200
C3233       C  0.37859294  0.54347778  0.49444585    -0.05800
C3234       C  0.39747733  0.53429859  0.50292608    -0.05800
C3235       C  0.39879303  0.51319719  0.50891647    -0.23900
C3236       C  0.38123058  0.50094029  0.50673325     0.18300
C3237       C  0.36216979  0.51001373  0.49822882     0.15500
C3238       C  0.36098464  0.53114225  0.49208292    -0.19000
C3239       C  0.34454174  0.49783948  0.49638378    -0.20800
C3240       C  0.34567380  0.47692143  0.50408021    -0.13400
C3241       C  0.36449051  0.46781966  0.51299905     0.03300
C3242       C  0.38231772  0.47982641  0.51356246    -0.25500
H3243       H  0.41130019  0.54338794  0.50460779     0.08400
H3244       H  0.41352612  0.50648229  0.51539515     0.12000
H3245       H  0.34628461  0.53793857  0.48553254     0.11900
H3246       H  0.32983874  0.50454729  0.48963334     0.11700
H3247       H  0.33182630  0.46782358  0.50315051     0.12200
H3248       H  0.39687625  0.47286716  0.52062161     0.14200
C3249       C  0.29381675  0.38540089  0.66537726    -0.05800
C3250       C  0.28696759  0.40479399  0.67735045    -0.05800
C3251       C  0.26990775  0.40669705  0.70118801    -0.23900
C3252       C  0.25918134  0.38925645  0.71326818     0.18300
C3253       C  0.26607005  0.36969505  0.70169406     0.15500
C3254       C  0.28334150  0.36787898  0.67812759    -0.19000
C3255       C  0.25540155  0.35222909  0.71342309    -0.20800
C3256       C  0.23772756  0.35408655  0.73537545    -0.13400
C3257       C  0.23024870  0.37345556  0.74633589     0.03300
C3258       C  0.24141809  0.39103199  0.73584517    -0.25500
H3259       H  0.29491962  0.41855155  0.66851224     0.08400
H3260       H  0.26498561  0.42183338  0.70984573     0.12000
H3261       H  0.28842231  0.35281661  0.66925574     0.11900
H3262       H  0.26050160  0.33710411  0.70501574     0.11700
H3263       H  0.22968785  0.34021454  0.74322096     0.12200
H3264       H  0.23589296  0.40606183  0.74391450     0.14200
C3265       C  0.37180651  0.28196246  0.08390115    -0.05800
C3266       C  0.35814727  0.27030342  0.10586704    -0.05800
C3267       C  0.35466094  0.24959327  0.09724994    -0.23900
C3268       C  0.36449977  0.24032027  0.06613012     0.18300
C3269       C  0.37789812  0.25203439  0.04342578     0.15500
C3270       C  0.38152258  0.27258977  0.05256114    -0.19000
C3271       C  0.38784546  0.24289985  0.01236524    -0.20800
C3272       C  0.38549536  0.22197458  0.00516421    -0.13400
C3273       C  0.37274056  0.21004503  0.02822972     0.03300
C3274       C  0.36186456  0.21938390  0.05812221    -0.25500
H3275       H  0.35019081  0.27718597  0.12962482     0.08400
H3276       H  0.34429513  0.24082015  0.11494010     0.12000
H3277       H  0.39172800  0.28140488  0.03458924     0.11900
H3278       H  0.39815983  0.25174286  0.99468233     0.11700
H3279       H  0.39447665  0.21487394  0.98291714     0.12200
H3280       H  0.35253649  0.21001335  0.07678575     0.14200
C3281       C  0.46144115  0.37447992  0.00380332    -0.05800
C3282       C  0.47045964  0.39346143  0.99481912    -0.05800
C3283       C  0.49171845  0.39576075  0.99466902    -0.23900
C3284       C  0.50438740  0.37912698  0.00345953     0.18300
C3285       C  0.49551031  0.35986912  0.01164008     0.15500
C3286       C  0.47419359  0.35765628  0.01162044    -0.19000
C3287       C  0.50809126  0.34311644  0.01992016    -0.20800
C3288       C  0.52929452  0.34526589  0.01908208    -0.13400
C3289       C  0.53831531  0.36426114  0.01054269     0.03300
C3290       C  0.52576791  0.38129004  0.00350904    -0.25500
H3291       H  0.46108336  0.40675760  0.98903521     0.08400
H3292       H  0.49823382  0.41061201  0.98811902     0.12000
H3293       H  0.46756614  0.34291975  0.01873544     0.11900
H3294       H  0.50154803  0.32825291  0.02629210     0.11700
H3295       H  0.53871365  0.33191469  0.02427558     0.12200
H3296       H  0.53262540  0.39588931  0.99614784     0.14200
C3297       C  0.37514933  0.46973343  0.03411899    -0.05800
C3298       C  0.39471670  0.47766656  0.02599122    -0.05800
C3299       C  0.39765620  0.49863563  0.02025668    -0.23900
C3300       C  0.38104843  0.51213268  0.02203178     0.18300
C3301       C  0.36136865  0.50442694  0.03082869     0.15500
C3302       C  0.35857574  0.48333794  0.03721590    -0.19000
C3303       C  0.34470202  0.51787519  0.03201835    -0.20800
C3304       C  0.34733271  0.53855607  0.02306400    -0.13400
C3305       C  0.36673219  0.54630998  0.01327379     0.03300
C3306       C  0.38366668  0.53306459  0.01386630    -0.25500
H3307       H  0.40783794  0.46761199  0.02391699     0.08400
H3308       H  0.41286280  0.50423224  0.01369111     0.12000
H3309       H  0.34341846  0.47746250  0.04337555     0.11900
H3310       H  0.32952345  0.51230220  0.03886084     0.11700
H3311       H  0.33405150  0.54846346  0.02313539     0.12200
H3312       H  0.39866988  0.53880553  0.00613601     0.14200
C3313       C  0.37358001  0.38486167  0.88614810    -0.05800
C3314       C  0.38476901  0.40032760  0.86778470    -0.05800
C3315       C  0.38727801  0.39998046  0.82840502    -0.23900
C3316       C  0.37887387  0.38401726  0.80680739     0.18300
C3317       C  0.36744233  0.36848264  0.82484678     0.15500
C3318       C  0.36470195  0.36911181  0.86426589    -0.19000
C3319       C  0.35913980  0.35247144  0.80320133    -0.20800
C3320       C  0.36198878  0.35197133  0.76386007    -0.13400
C3321       C  0.37321572  0.36746668  0.74552457     0.03300
C3322       C  0.38172389  0.38337641  0.76745316    -0.25500
H3323       H  0.39166914  0.41263797  0.88387640     0.08400
H3324       H  0.39600504  0.41207086  0.81488117     0.12000
H3325       H  0.35608770  0.35698377  0.87796012     0.11900
H3326       H  0.35035965  0.34039804  0.81666895     0.11700
H3327       H  0.35518540  0.33960517  0.74777145     0.12200
H3328       H  0.39029087  0.39557447  0.75388687     0.14200
C3329       C  0.37497753  0.38279860  0.38585035    -0.05800
C3330       C  0.39226283  0.39157165  0.36855256    -0.05800
C3331       C  0.39522937  0.38993171  0.32946174    -0.23900
C3332       C  0.38094110  0.37953171  0.30698924     0.18300
C3333       C  0.36337106  0.37086119  0.32388592     0.15500
C3334       C  0.36047090  0.37259521  0.36313863    -0.19000
C3335       C  0.34908312  0.36049192  0.30125865    -0.20800
C3336       C  0.35210648  0.35888977  0.26209593    -0.13400
C3337       C  0.36945515  0.36764222  0.24501364     0.03300
C3338       C  0.38389590  0.37780250  0.26783298    -0.25500
H3339       H  0.40376073  0.39931203  0.38533593     0.08400
H3340       H  0.40878813  0.39665842  0.31684760     0.12000
H3341       H  0.34703867  0.36573614  0.37600500     0.11900
H3342       H  0.33549307  0.35378893  0.31379111     0.11700
H3343       H  0.34062540  0.35126555  0.24508665     0.12200
H3344       H  0.39737178  0.38464509  0.25507666     0.14200
C3345       C  0.22641591  0.38777506  0.23732479    -0.05800
C3346       C  0.23818975  0.40575316  0.24109535    -0.05800
C3347       C  0.25617898  0.40851584  0.21986891    -0.23900
C3348       C  0.26282063  0.39335755  0.19439777     0.18300
C3349       C  0.25111492  0.37526805  0.19051605     0.15500
C3350       C  0.23310424  0.37263005  0.21177677    -0.19000
C3351       C  0.25768884  0.35989954  0.16566800    -0.20800
C3352       C  0.27594659  0.36209679  0.14554061    -0.13400
C3353       C  0.28793848  0.37985252  0.14916983     0.03300
C3354       C  0.28109113  0.39568981  0.17327653    -0.25500
H3355       H  0.23349779  0.41774011  0.26046550     0.08400
H3356       H  0.26492176  0.42247657  0.22348752     0.12000
H3357       H  0.22426211  0.35871873  0.20823340     0.11900
H3358       H  0.24888511  0.34595748  0.16230099     0.11700
H3359       H  0.28084288  0.34971084  0.12722366     0.12200
H3360       H  0.29032974  0.40934977  0.17672308     0.14200
C3361       C  0.79536681  0.14984632  0.66051620     0.13400
C3362       C  0.78414376  0.14148725  0.63042033    -0.05800
C3363       C  0.76285495  0.13931865  0.63321864    -0.23900
C3364       C  0.75247404  0.14526092  0.66641188     0.18300
C3365       C  0.76355786  0.15446751  0.69623414     0.15500
C3366       C  0.78491585  0.15669968  0.69307042    -0.19000
C3367       C  0.75321594  0.16042881  0.72939007    -0.20800
C3368       C  0.73217033  0.15693702  0.73335195    -0.13400
C3369       C  0.72103859  0.14716755  0.70447183     0.03300
C3370       C  0.73135439  0.14157524  0.67078854    -0.25500
H3371       H  0.79199484  0.13548204  0.60572754     0.08400
H3372       H  0.75462710  0.13221024  0.61005740     0.12000
H3373       H  0.79360000  0.16259730  0.71686201     0.11900
H3374       H  0.76146445  0.16754787  0.75252029     0.11700
H3375       H  0.72466499  0.16151580  0.75941679     0.12200
H3376       H  0.72296378  0.13430103  0.64798216     0.14200
C3377       C  0.86952217  0.05234965  0.76271613    -0.05800
C3378       C  0.84967658  0.04605668  0.77287095    -0.05800
C3379       C  0.84546735  0.02550367  0.78016003    -0.23900
C3380       C  0.86097221  0.01084623  0.77694752     0.18300
C3381       C  0.88105207  0.01702552  0.76723639     0.15500
C3382       C  0.88526828  0.03777709  0.76071728    -0.19000
C3383       C  0.89644394  0.00227763  0.76324490    -0.20800
C3384       C  0.89192543  0.98157866  0.76842310    -0.13400
C3385       C  0.87200148  0.97531069  0.77817023     0.03300
C3386       C  0.85662515  0.99008012  0.78267662    -0.25500
H3387       H  0.83729573  0.05702832  0.77469606     0.08400
H3388       H  0.83000469  0.02102799  0.78756986     0.12000
H3389       H  0.90057300  0.04243403  0.75251795     0.11900
H3390       H  0.91190652  0.00672141  0.75576396     0.11700
H3391       H  0.90409700  0.97047316  0.76511821     0.12200
H3392       H  0.84119304  0.98539288  0.78993101     0.14200
C3393       C  0.97974824  0.12667148  0.74114120    -0.05800
C3394       C  0.98538689  0.11006416  0.76442725    -0.05800
C3395       C  0.00599265  0.10516004  0.77005576    -0.23900
C3396       C  0.02140475  0.11676125  0.75254406     0.18300
C3397       C  0.01591753  0.13348823  0.72917939     0.15500
C3398       C  0.99522948  0.13830437  0.72364497    -0.19000
C3399       C  0.03123315  0.14538574  0.71214605    -0.20800
C3400       C  0.05179507  0.14128913  0.71936704    -0.13400
C3401       C  0.05742311  0.12492978  0.74289946     0.03300
C3402       C  0.04219767  0.11238646  0.75885700    -0.25500
H3403       H  0.97386143  0.10072926  0.77819080     0.08400
H3404       H  0.00986377  0.09234130  0.78820212     0.12000
H3405       H  0.99122952  0.15108625  0.70549202     0.11900
H3406       H  0.02730269  0.15826465  0.69419998     0.11700
H3407       H  0.06337631  0.15128910  0.70746017     0.12200
H3408       H  0.04650982  0.10007247  0.77787959     0.14200
C3409       C  0.71974858  0.14740899  0.22241937    -0.05800
C3410       C  0.73175797  0.14598018  0.25514257    -0.05800
C3411       C  0.75307992  0.14570930  0.25222953    -0.23900
C3412       C  0.76259959  0.14712254  0.21656844     0.18300
C3413       C  0.75062842  0.14968010  0.18362199     0.15500
C3414       C  0.72922811  0.14965478  0.18677425    -0.19000
C3415       C  0.76028182  0.15146036  0.14807031    -0.20800
C3416       C  0.78160176  0.14984828  0.14504941    -0.13400
C3417       C  0.79342839  0.14617330  0.17748544     0.03300
C3418       C  0.78384644  0.14530583  0.21321742    -0.25500
H3419       H  0.72463450  0.14406471  0.28268882     0.08400
H3420       H  0.76210897  0.14383219  0.27773055     0.12000
H3421       H  0.71989930  0.15078717  0.16146687     0.11900
H3422       H  0.75131517  0.15358947  0.12256426     0.11700
H3423       H  0.78873923  0.15057738  0.11732415     0.12200
H3424       H  0.79296257  0.14275180  0.23844799     0.14200
C3425       C  0.85617545  0.97347854  0.27985611    -0.05800
C3426       C  0.83824018  0.98532015  0.28036392    -0.05800
C3427       C  0.83914720  0.00656073  0.27578010    -0.23900
C3428       C  0.85804760  0.01642200  0.27124664     0.18300
C3429       C  0.87625202  0.00477573  0.27187042     0.15500
C3430       C  0.87520080  0.98336802  0.27578033    -0.19000
C3431       C  0.89516675  0.01474327  0.26826751    -0.20800
C3432       C  0.89601882  0.03597249  0.26309496    -0.13400
C3433       C  0.87796985  0.04763467  0.26107491     0.03300
C3434       C  0.85900742  0.03769629  0.26564172    -0.25500
H3435       H  0.82342854  0.97808771  0.28359364     0.08400
H3436       H  0.82504492  0.01526494  0.27560827     0.12000
H3437       H  0.88917369  0.97443538  0.27595314     0.11900
H3438       H  0.90929713  0.00609262  0.26895168     0.11700
H3439       H  0.91082314  0.04317056  0.25952031     0.12200
H3440       H  0.84495335  0.04647085  0.26442328     0.14200
C3441       C  0.98003872  0.13512671  0.23617944    -0.05800
C3442       C  0.99107824  0.15362250  0.23554059    -0.05800
C3443       C  0.01223029  0.15382967  0.24084932    -0.23900
C3444       C  0.02292049  0.13550195  0.24644915     0.18300
C3445       C  0.01210804  0.11673064  0.24681234     0.15500
C3446       C  0.99067898  0.11666046  0.24218035    -0.19000
C3447       C  0.02298078  0.09839359  0.25157872    -0.20800
C3448       C  0.04423460  0.09868824  0.25658281    -0.13400
C3449       C  0.05506708  0.11733262  0.25739760     0.03300
C3450       C  0.04422664  0.13569855  0.25195299    -0.25500
H3451       H  0.98329381  0.16804902  0.23094760     0.08400
H3452       H  0.02024792  0.16835419  0.24036039     0.12000
H3453       H  0.98239994  0.10226996  0.24220782     0.11900
H3454       H  0.01503678  0.08382579  0.25173896     0.11700
H3455       H  0.05212836  0.08430542  0.26095176     0.12200
H3456       H  0.05235607  0.15017281  0.25222406     0.14200
C3457       C  0.87447249  0.13366444  0.01449452    -0.05800
C3458       C  0.86350598  0.14962035  0.99710001    -0.05800
C3459       C  0.86518309  0.15306326  0.95808697    -0.23900
C3460       C  0.87786205  0.14063361  0.93571414     0.18300
C3461       C  0.88844176  0.12415187  0.95255756     0.15500
C3462       C  0.88654801  0.12066416  0.99167807    -0.19000
C3463       C  0.90105976  0.11167872  0.93011597    -0.20800
C3464       C  0.90311283  0.11545330  0.89124851    -0.13400
C3465       C  0.89262227  0.13181064  0.87410175     0.03300
C3466       C  0.88011628  0.14443392  0.89678447    -0.25500
H3467       H  0.85409954  0.15987676  0.01379967     0.08400
H3468       H  0.85685382  0.16569670  0.94553310     0.12000
H3469       H  0.89506910  0.10822342  0.00446899     0.11900
H3470       H  0.90930177  0.09896759  0.94259977     0.11700
H3471       H  0.91275638  0.10540786  0.87456679     0.12200
H3472       H  0.87181097  0.15705591  0.88411572     0.14200
C3473       C  0.89939420  0.13802495  0.37316104    -0.05800
C3474       C  0.91486609  0.12738939  0.39242343    -0.05800
C3475       C  0.91470332  0.12620456  0.43209012    -0.23900
C3476       C  0.89887540  0.13534165  0.45312519     0.18300
C3477       C  0.88335925  0.14625881  0.43414273     0.15500
C3478       C  0.88381823  0.14767558  0.39441726    -0.19000
C3479       C  0.86748676  0.15531848  0.45517601    -0.20800
C3480       C  0.86691184  0.15346086  0.49473986    -0.13400
C3481       C  0.88214470  0.14242325  0.51395773     0.03300
C3482       C  0.89817781  0.13351652  0.49277075    -0.25500
H3483       H  0.92704878  0.11994567  0.37680247     0.08400
H3484       H  0.92679078  0.11786579  0.44629421     0.12000
H3485       H  0.87165837  0.15581391  0.37999314     0.11900
H3486       H  0.85544710  0.16374297  0.44100179     0.11700
H3487       H  0.85444276  0.16049176  0.51024369     0.12200
H3488       H  0.91020446  0.12513848  0.50710192     0.14200
C3489       C  0.79651749  0.36536965  0.98106077    -0.05800
C3490       C  0.78471061  0.36503749  0.01425253    -0.05800
C3491       C  0.76333061  0.36480489  0.01203791    -0.23900
C3492       C  0.75353559  0.36445914  0.97658067     0.18300
C3493       C  0.76536654  0.36355814  0.94305841     0.15500
C3494       C  0.78677347  0.36425176  0.94553310    -0.19000
C3495       C  0.75555962  0.36255085  0.90765407    -0.20800
C3496       C  0.73418271  0.36312794  0.90540246    -0.13400
C3497       C  0.72239571  0.36515117  0.93843265     0.03300
C3498       C  0.73214740  0.36552082  0.97399151    -0.25500
H3499       H  0.79199820  0.36592708  0.04176175     0.08400
H3500       H  0.75445466  0.36531072  0.03800859     0.12000
H3501       H  0.79589807  0.36432089  0.91980149     0.11900
H3502       H  0.76442848  0.36169328  0.88170355     0.11700
H3503       H  0.72689483  0.36288558  0.87784671     0.12200
H3504       H  0.72303846  0.36692509  0.99961323     0.14200
C3505       C  0.88568434  0.45346488  0.87908666    -0.05800
C3506       C  0.90385083  0.46496511  0.87915239    -0.05800
C3507       C  0.90327436  0.48622897  0.87403884    -0.23900
C3508       C  0.88453299  0.49628543  0.86865073     0.18300
C3509       C  0.86630965  0.48468252  0.86692712     0.15500
C3510       C  0.86702103  0.46343734  0.87196645    -0.19000
C3511       C  0.84756364  0.49454450  0.86111547    -0.20800
C3512       C  0.84682067  0.51577499  0.85725452    -0.13400
C3513       C  0.86476476  0.52756020  0.85958224     0.03300
C3514       C  0.88363073  0.51771349  0.86529848    -0.25500
H3515       H  0.91838691  0.45766246  0.88486469     0.08400
H3516       H  0.91741644  0.49485558  0.87520740     0.12000
H3517       H  0.85289609  0.45472606  0.87154575     0.11900
H3518       H  0.83346386  0.48584929  0.85970185     0.11700
H3519       H  0.83212798  0.52303421  0.85277621     0.12200
H3520       H  0.89757685  0.52667114  0.86654481     0.14200
C3521       C  0.97920259  0.35820669  0.90091551    -0.05800
C3522       C  0.98884046  0.33945836  0.89338551    -0.05800
C3523       C  0.00998142  0.33859193  0.88795159    -0.23900
C3524       C  0.02189223  0.35637870  0.89124275     0.18300
C3525       C  0.01236200  0.37532848  0.89902062     0.15500
C3526       C  0.99099090  0.37619324  0.90305000    -0.19000
C3527       C  0.02442917  0.39295548  0.90341505    -0.20800
C3528       C  0.04573751  0.39185599  0.89979186    -0.13400
C3529       C  0.05535822  0.37314066  0.89134987     0.03300
C3530       C  0.04319845  0.35544111  0.88724512    -0.25500
H3531       H  0.97998057  0.32545886  0.89189355     0.08400
H3532       H  0.01706892  0.32393782  0.88202834     0.12000
H3533       H  0.98362476  0.39065327  0.90954386     0.11900
H3534       H  0.01738874  0.40759793  0.90961083     0.11700
H3535       H  0.05462888  0.40575656  0.90274972     0.12200
H3536       H  0.05026714  0.34085234  0.88065337     0.14200
C3537       C  0.90107787  0.21331868  0.09583877    -0.05800
C3538       C  0.92053027  0.22006672  0.08408446    -0.05800
C3539       C  0.92298197  0.23926528  0.06694980    -0.23900
C3540       C  0.90607550  0.25218561  0.06182187     0.18300
C3541       C  0.88647829  0.24540678  0.07332260     0.15500
C3542       C  0.88407871  0.22602158  0.08971992    -0.19000
C3543       C  0.86957204  0.25827451  0.06900246    -0.20800
C3544       C  0.87202209  0.27782047  0.05388639    -0.13400
C3545       C  0.89140443  0.28490993  0.04231027     0.03300
C3546       C  0.90840878  0.27185040  0.04598584    -0.25500
H3547       H  0.93388884  0.21055149  0.08835046     0.08400
H3548       H  0.93813445  0.24413849  0.05831494     0.12000
H3549       H  0.86900052  0.22113275  0.09885264     0.11900
H3550       H  0.85444620  0.25329706  0.07764048     0.11700
H3551       H  0.85856899  0.28734336  0.05097418     0.12200
H3552       H  0.92341855  0.27706663  0.03713580     0.14200
C3553       C  0.72374811  0.36818632  0.43864636    -0.05800
C3554       C  0.73530199  0.36285856  0.40657579    -0.05800
C3555       C  0.75647343  0.36034045  0.40950593    -0.23900
C3556       C  0.76619896  0.36265237  0.44473229     0.18300
C3557       C  0.75445816  0.36687917  0.47748575     0.15500
C3558       C  0.73335100  0.36984439  0.47411498    -0.19000
C3559       C  0.76410926  0.36863028  0.51288878    -0.20800
C3560       C  0.78540227  0.36739049  0.51552882    -0.13400
C3561       C  0.79719401  0.36457789  0.48276528     0.03300
C3562       C  0.78751656  0.36161929  0.44760445    -0.25500
H3563       H  0.72803152  0.36122955  0.37916002     0.08400
H3564       H  0.76526270  0.35688445  0.38421133     0.12000
H3565       H  0.72434516  0.37344774  0.49911123     0.11900
H3566       H  0.75525482  0.37167871  0.53827857     0.11700
H3567       H  0.79271154  0.36992368  0.54266387     0.12200
H3568       H  0.79669540  0.35945493  0.42224156     0.14200
C3569       C  0.87550168  0.45420415  0.37189967    -0.05800
C3570       C  0.85706282  0.45933061  0.35367076    -0.05800
C3571       C  0.85192863  0.47978125  0.34666466    -0.23900
C3572       C  0.86492653  0.49561260  0.35846227     0.18300
C3573       C  0.88368569  0.49065160  0.37613068     0.15500
C3574       C  0.88904724  0.46999332  0.38205583    -0.19000
C3575       C  0.89641995  0.50645919  0.38886041    -0.20800
C3576       C  0.89061435  0.52693130  0.38443971    -0.13400
C3577       C  0.87200995  0.53217736  0.36679010     0.03300
C3578       C  0.85928162  0.51628580  0.35363251    -0.25500
H3579       H  0.84630137  0.44747220  0.34573355     0.08400
H3580       H  0.83748132  0.48322564  0.33309490     0.12000
H3581       H  0.90312203  0.46627922  0.39671819     0.11900
H3582       H  0.91080629  0.50299633  0.40263727     0.11700
H3583       H  0.90087530  0.53869236  0.39470224     0.12200
H3584       H  0.84488473  0.51995709  0.34006317     0.14200
C3585       C  0.05785068  0.36175590  0.39878650    -0.05800
C3586       C  0.04940085  0.34245209  0.40716597    -0.05800
C3587       C  0.02831294  0.34006199  0.41197990    -0.23900
C3588       C  0.01518418  0.35687732  0.40796337     0.18300
C3589       C  0.02346382  0.37638950  0.39971246     0.15500
C3590       C  0.04473739  0.37875682  0.39561584    -0.19000
C3591       C  0.01028475  0.39313498  0.39510161    -0.20800
C3592       C  0.98913442  0.39060319  0.39873803    -0.13400
C3593       C  0.98073081  0.37131903  0.40739079     0.03300
C3594       C  0.99392578  0.35448856  0.41197270    -0.25500
H3595       H  0.05912061  0.32908718  0.40951515     0.08400
H3596       H  0.02224840  0.32498631  0.41825740     0.12000
H3597       H  0.05098250  0.39365402  0.38845754     0.11900
H3598       H  0.01633278  0.40821197  0.38878666     0.11700
H3599       H  0.97936963  0.40389310  0.39572390     0.12200
H3600       H  0.98765878  0.33954086  0.41869682     0.14200
C3601       C  0.89207417  0.35957505  0.77608037    -0.05800
C3602       C  0.88461050  0.34209244  0.75727286    -0.05800
C3603       C  0.88178283  0.34217841  0.71802857    -0.23900
C3604       C  0.88613365  0.35983068  0.69690685     0.18300
C3605       C  0.89389986  0.37737505  0.71551121     0.15500
C3606       C  0.89701080  0.37707290  0.75482581    -0.19000
C3607       C  0.89814516  0.39508079  0.69458160    -0.20800
C3608       C  0.89497935  0.39536763  0.65550164    -0.13400
C3609       C  0.88742775  0.37798756  0.63652790     0.03300
C3610       C  0.88286749  0.36025865  0.65753902    -0.25500
H3611       H  0.88065959  0.32839110  0.77300587     0.08400
H3612       H  0.87589184  0.32855748  0.70431094     0.12000
H3613       H  0.90255075  0.39072035  0.76899740     0.11900
H3614       H  0.90401139  0.40868744  0.70839270     0.11700
H3615       H  0.89862806  0.40922403  0.63999402     0.12200
H3616       H  0.87729839  0.34668016  0.64318878     0.14200
C3617       C  0.89219424  0.36426681  0.27620022    -0.05800
C3618       C  0.88427380  0.34654139  0.25872436    -0.05800
C3619       C  0.88057850  0.34599118  0.21981273    -0.23900
C3620       C  0.88486914  0.36308678  0.19729200     0.18300
C3621       C  0.89331303  0.38083682  0.21420380     0.15500
C3622       C  0.89690612  0.38134874  0.25353693    -0.19000
C3623       C  0.89800472  0.39776830  0.19143959    -0.20800
C3624       C  0.89478701  0.39695823  0.15233050    -0.13400
C3625       C  0.88650473  0.37932236  0.13515359     0.03300
C3626       C  0.88123384  0.36253936  0.15803338    -0.25500
H3627       H  0.88052826  0.33307868  0.27530217     0.08400
H3628       H  0.87427878  0.33219380  0.20737539     0.12000
H3629       H  0.90286161  0.39515760  0.26652994     0.11900
H3630       H  0.90449572  0.41150753  0.20375570     0.11700
H3631       H  0.89908950  0.41011583  0.13536744     0.12200
H3632       H  0.87515313  0.34875646  0.14513314     0.14200
C3633       C  0.89749985  0.28806987  0.54050794    -0.05800
C3634       C  0.87915851  0.27695963  0.53720859    -0.05800
C3635       C  0.87761584  0.25695170  0.55067922    -0.23900
C3636       C  0.89427392  0.24763990  0.56856257     0.18300
C3637       C  0.91297442  0.25835856  0.57180023     0.15500
C3638       C  0.91460844  0.27849550  0.55717877    -0.19000
C3639       C  0.92943993  0.24883871  0.59036624    -0.20800
C3640       C  0.92713400  0.22929352  0.60660852    -0.13400
C3641       C  0.90836974  0.21876304  0.60429775     0.03300
C3642       C  0.89220442  0.22798621  0.58422765    -0.25500
H3643       H  0.86588925  0.28378190  0.52388776     0.08400
H3644       H  0.86320983  0.24889549  0.54775795     0.12000
H3645       H  0.92884555  0.28687218  0.55980117     0.11900
H3646       H  0.94395664  0.25669445  0.59310306     0.11700
H3647       H  0.93992906  0.22261213  0.62161213     0.12200
H3648       H  0.87764175  0.22017325  0.58174985     0.14200
loop_ 
_geom_bond_atom_site_label_1 
_geom_bond_atom_site_label_2 
_geom_bond_distance 
_geom_bond_site_symmetry_2 
_ccdc_geom_bond_type 
Zr1           O2   2.442       .  S
Zr1           O3   2.463       .  S
Zr1           O4   2.456       .  S
Zr1           O7   2.460       .  S
Zr1           O9   2.392       .  S
Zr1          O10   2.384       .  S
Zr1          O11   2.419       .  S
Zr1          O12   2.409       .  S
O2           H58   0.990       .  S
O2           H66   0.990       .  S
O3           C23   1.289       .  A
O4           C25   1.288       .  A
O5          Zr15   2.423       .  S
O5           C24   1.278       .  A
O6          Zr14   2.428       .  S
O6           C25   1.285       .  A
O7           C24   1.288       .  A
O8          Zr16   2.392       .  S
O8           C23   1.277       .  A
O9          Zr14   2.409       .  S
O9          Zr16   2.378       .  S
O10         Zr15   2.391       .  S
O10         Zr16   2.380       .  S
O10          H45   0.966       .  S
O11         Zr14   2.407       .  S
O11         Zr31   2.384       .  S
O11          H48   0.963       .  S
O12         Zr15   2.382       .  S
O12         Zr31   2.394       .  S
Zr13         O38   2.444       .  S
Zr13         O32   2.450       .  S
Zr13         O40   2.471       .  S
Zr13         O28   2.442       .  S
Zr13         O19   2.395       .  S
Zr13         O20   2.414       .  S
Zr13         O21   2.383       .  S
Zr13         O22   2.396       .  S
Zr14         O33   2.437       .  S
Zr14         O26   2.434       .  S
Zr14         O27   2.461       .  S
Zr14         O20   2.394       .  S
Zr14         O21   2.392       .  S
Zr15         O17   2.435       .  S
Zr15         O39   2.441       .  S
Zr15         O41   2.398       .  S
Zr15         O19   2.387       .  S
Zr15         O22   2.398       .  S
Zr16         O42   2.435       .  S
Zr16         O43   2.434       .  S
Zr16         O18   2.437       .  S
Zr16         O19   2.375       .  S
Zr16         O20   2.378       .  S
O17          H54   0.990       .  S
O18          H49   0.990       .  S
O18          H63   0.990       .  S
O20          H46   0.964       .  S
O21         Zr31   2.386       .  S
O22         Zr31   2.386       .  S
O22          H47   0.965       .  S
C23        C3617   1.484       .  S
C24        C3569   1.485       .  S
C25        C3593   1.483       .  S
O26          H62   0.990       .  S
O27          C29   1.289       .  A
O28          C29   1.287       .  A
C29        C3633   1.487       .  S
O30         Zr31   2.437       .  S
O30          H59   0.990       .  S
Zr31         O34   2.438       .  S
Zr31         O35   2.438       .  S
Zr31         O36   2.401       .  S
O32          C37   1.286       .  A
O33          H50   0.990       .  S
O33          H65   0.990       .  S
O34          H51   0.990       .  S
O35          H55   0.990       .  S
O35          H64   0.990       .  S
O36          C37   1.278       .  A
C37        C3609   1.479       .  S
O38          H57   0.990       .  S
O38          H61   0.991       .  S
O39          H53   0.990       .  S
O39          H60   0.990       .  S
O40          C44   1.288       .  A
O41          C44   1.278       .  A
O42          H52   0.990       .  S
O43          H56   0.990       .  S
C44        C3561   1.466       .  S
Zr67         O68   2.443       .  S
Zr67         O69   2.443       .  S
Zr67         O70   2.449       .  S
Zr67         O73   2.453       .  S
Zr67         O75   2.391       .  S
Zr67         O76   2.386       .  S
Zr67         O77   2.410       .  S
Zr67         O78   2.396       .  S
O68         H124   0.990       .  S
O68         H132   0.991       .  S
O69          C89   1.286       .  A
O70          C91   1.285       .  A
O71         Zr81   2.409       .  S
O71          C90   1.281       .  A
O72         Zr80   2.426       .  S
O72          C91   1.284       .  A
O73          C90   1.288       .  A
O74         Zr82   2.398       .  S
O74          C89   1.277       .  A
O75         Zr80   2.403       .  S
O75         Zr82   2.376       .  S
O76         Zr81   2.390       .  S
O76         Zr82   2.381       .  S
O76         H111   0.967       .  S
O77         Zr80   2.404       .  S
O77         Zr97   2.384   1_556  S
O77         H114   0.965       .  S
O78         Zr81   2.388       .  S
O78         Zr97   2.381   1_556  S
Zr79        O104   2.442       .  S
Zr79         O98   2.463       .  S
Zr79        O106   2.469       .  S
Zr79         O94   2.434       .  S
Zr79         O85   2.394   1_554  S
Zr79         O86   2.425   1_554  S
Zr79         O87   2.383       .  S
Zr79         O88   2.390       .  S
Zr80         O99   2.436   1_556  S
Zr80         O92   2.435       .  S
Zr80         O93   2.446   1_556  S
Zr80         O86   2.403       .  S
Zr80         O87   2.392   1_556  S
Zr81         O83   2.436       .  S
Zr81        O105   2.440       .  S
Zr81        O107   2.415       .  S
Zr81         O85   2.375       .  S
Zr81         O88   2.399   1_556  S
Zr82        O108   2.435       .  S
Zr82        O109   2.436       .  S
Zr82         O84   2.436       .  S
Zr82         O85   2.378       .  S
Zr82         O86   2.383       .  S
O83         H120   0.990       .  S
O84         H115   0.990       .  S
O84         H129   0.990       .  S
O86         H112   0.965       .  S
O87         Zr97   2.383       .  S
O88         Zr97   2.392       .  S
O88         H113   0.965       .  S
C89        C3601   1.477       .  S
C90        C3505   1.479       .  S
C91        C3521   1.473       .  S
O92         H128   0.989       .  S
O93          C95   1.287       .  A
O94          C95   1.284       .  A
C95        C3545   1.483       .  S
O96         Zr97   2.435       .  S
O96         H125   0.990   1_554  S
Zr97        O100   2.437       .  S
Zr97        O101   2.437       .  S
Zr97        O102   2.386       .  S
O98         C103   1.289       .  A
O99         H116   0.990       .  S
O99         H131   0.990       .  S
O100        H117   0.990       .  S
O101        H121   0.990       .  S
O101        H130   0.989       .  S
O102        C103   1.275       .  A
C103       C3625   1.481       .  S
O104        H123   0.991       .  S
O104        H127   0.990       .  S
O105        H119   0.990       .  S
O105        H126   0.990       .  S
O106        C110   1.290   1_554  A
O107        C110   1.280       .  A
O108        H118   0.990       .  S
O109        H122   0.990       .  S
C110       C3489   1.474       .  S
Zr133       O134   2.442       .  S
Zr133       O135   2.464       .  S
Zr133       O136   2.463       .  S
Zr133       O139   2.450       .  S
Zr133       O141   2.384       .  S
Zr133       O142   2.389       .  S
Zr133       O143   2.414       .  S
Zr133       O144   2.403       .  S
O134        H190   0.990       .  S
O134        H198   0.991       .  S
O135        C155   1.289       .  A
O136        C157   1.288       .  A
O137       Zr147   2.425       .  S
O137        C156   1.285       .  A
O138       Zr146   2.414       .  S
O138        C157   1.282       .  A
O139        C156   1.288       .  A
O140       Zr148   2.406       .  S
O140        C155   1.279       .  A
O141       Zr146   2.398       .  S
O141       Zr148   2.379       .  S
O142       Zr147   2.390       .  S
O142       Zr148   2.386       .  S
O142        H177   0.965       .  S
O143       Zr146   2.396       .  S
O143       Zr163   2.407       .  S
O143        H180   0.965       .  S
O144       Zr147   2.384       .  S
O144       Zr163   2.384       .  S
Zr145       O170   2.441       .  S
Zr145       O164   2.442       .  S
Zr145       O172   2.457       .  S
Zr145       O160   2.439       .  S
Zr145       O151   2.397       .  S
Zr145       O152   2.414       .  S
Zr145       O153   2.380       .  S
Zr145       O154   2.383       .  S
Zr146       O165   2.436       .  S
Zr146       O158   2.435       .  S
Zr146       O159   2.423       .  S
Zr146       O152   2.401       .  S
Zr146       O153   2.390       .  S
Zr147       O149   2.436       .  S
Zr147       O171   2.438       .  S
Zr147       O173   2.408       .  S
Zr147       O151   2.388       .  S
Zr147       O154   2.396       .  S
Zr148       O174   2.438       .  S
Zr148       O175   2.436       .  S
Zr148       O150   2.438       .  S
Zr148       O151   2.383       .  S
Zr148       O152   2.394       .  S
O149        H186   0.990       .  S
O150        H181   0.990       .  S
O150        H195   0.990       .  S
O152        H178   0.965       .  S
O153       Zr163   2.373       .  S
O154       Zr163   2.380       .  S
O154        H179   0.966       .  S
C155       C3473   1.485       .  S
C156       C3433   1.485       .  S
C157       C3441   1.485       .  S
O158        H194   0.990       .  S
O159        C161   1.283       .  A
O160        C161   1.285       .  A
C161       C3537   1.481       .  S
O162       Zr163   2.436       .  S
O162        H191   0.990       .  S
Zr163       O166   2.437       .  S
Zr163       O167   2.440       .  S
Zr163       O168   2.411       .  S
O164        C169   1.285       .  A
O165        H182   0.990       .  S
O165        H197   0.990       .  S
O166        H183   0.990       .  S
O167        H187   0.990       .  S
O167        H196   0.990       .  S
O168        C169   1.280       .  A
C169       C3457   1.485       .  S
O170        H189   0.990       .  S
O170        H193   0.990       .  S
O171        H185   0.990       .  S
O171        H192   0.990       .  S
O172        C176   1.288       .  A
O173        C176   1.281       .  A
O174        H184   0.990       .  S
O175        H188   0.990       .  S
C176       C3417   1.475       .  S
Zr199       O200   2.444       .  S
Zr199       O201   2.444       .  S
Zr199       O202   2.439       .  S
Zr199       O205   2.439       .  S
Zr199       O207   2.386       .  S
Zr199       O208   2.380       .  S
Zr199       O209   2.415       .  S
Zr199       O210   2.400       .  S
O200        H256   0.991       .  S
O200        H264   0.991       .  S
O201        C221   1.285       .  A
O202        C223   1.284       .  A
O203       Zr213   2.408       .  S
O203        C222   1.280       .  A
O204       Zr212   2.438       .  S
O204        C223   1.286       .  A
O205        C222   1.286       .  A
O206       Zr214   2.413       .  S
O206        C221   1.281       .  A
O207       Zr212   2.398       .  S
O207       Zr214   2.374       .  S
O208       Zr213   2.382       .  S
O208       Zr214   2.382       .  S
O208        H243   0.965       .  S
O209       Zr212   2.409       .  S
O209       Zr229   2.390       .  S
O209        H246   0.964       .  S
O210       Zr213   2.385       .  S
O210       Zr229   2.391       .  S
Zr211       O236   2.439       .  S
Zr211       O230   2.451       .  S
Zr211       O238   2.476       .  S
Zr211       O226   2.437       .  S
Zr211       O217   2.395       .  S
Zr211       O218   2.419       .  S
Zr211       O219   2.385       .  S
Zr211       O220   2.383       .  S
Zr212       O231   2.438       .  S
Zr212       O224   2.434       .  S
Zr212       O225   2.449       .  S
Zr212       O218   2.402       .  S
Zr212       O219   2.395       .  S
Zr213       O215   2.437       .  S
Zr213       O237   2.438       .  S
Zr213       O239   2.398       .  S
Zr213       O217   2.384       .  S
Zr213       O220   2.391       .  S
Zr214       O240   2.434       .  S
Zr214       O241   2.436       .  S
Zr214       O216   2.437       .  S
Zr214       O217   2.393       .  S
Zr214       O218   2.397       .  S
O215        H252   0.990       .  S
O216        H247   0.990       .  S
O216        H261   0.990       .  S
O218        H244   0.965       .  S
O219       Zr229   2.372       .  S
O220       Zr229   2.387       .  S
O220        H245   0.964       .  S
C221       C3465   1.484       .  S
C222       C3377   1.474       .  S
C223       C3393   1.487       .  S
O224        H260   0.990       .  S
O225        C227   1.288       .  A
O226        C227   1.286       .  A
C227       C3641   1.495       .  S
O228       Zr229   2.436       .  S
O228        H257   0.990       .  S
Zr229       O232   2.436       .  S
Zr229       O233   2.439       .  S
Zr229       O234   2.409       .  S
O230        C235   1.287       .  A
O231        H248   0.990       .  S
O231        H263   0.990       .  S
O232        H249   0.990       .  S
O233        H253   0.990       .  S
O233        H262   0.990       .  S
O234        C235   1.280       .  A
C235       C3481   1.486       .  S
O236        H255   0.990       .  S
O236        H259   0.990       .  S
O237        H251   0.990       .  S
O237        H258   0.990       .  S
O238        C242   1.292       .  A
O239        C242   1.277       .  A
O240        H250   0.990       .  S
O241        H254   0.990       .  S
C242       C3361   1.475       .  S
Zr265       O266   2.444       .  S
Zr265       O267   2.454       .  S
Zr265       O268   2.491       .  S
Zr265       O271   2.435       .  S
Zr265       O273   2.383       .  S
Zr265       O274   2.390       .  S
Zr265       O275   2.404       .  S
Zr265       O276   2.416       .  S
O266        H322   0.990       .  S
O266        H330   0.991       .  S
O267        C287   1.287       .  A
O268        C289   1.294       .  A
O269       Zr279   2.453       .  S
O269        C288   1.288       .  A
O270       Zr278   2.405       .  S
O270        C289   1.281       .  A
O271        C288   1.286       .  A
O272       Zr280   2.391       .  S
O272        C287   1.277       .  A
O273       Zr278   2.403       .  S
O273       Zr280   2.387       .  S
O274       Zr279   2.387       .  S
O274       Zr280   2.371       .  S
O274        H309   0.966       .  S
O275       Zr278   2.401       .  S
O275       Zr295   2.370       .  S
O275        H312   0.962       .  S
O276       Zr279   2.401       .  S
O276       Zr295   2.391       .  S
Zr277       O302   2.443   1_554  S
Zr277       O296   2.456   1_554  S
Zr277       O304   2.425       .  S
Zr277       O292   2.454       .  S
Zr277       O283   2.409       .  S
Zr277       O284   2.411       .  S
Zr277       O285   2.371       .  S
Zr277       O286   2.393       .  S
Zr278       O297   2.437   1_554  S
Zr278       O290   2.436       .  S
Zr278       O291   2.427       .  S
Zr278       O284   2.393       .  S
Zr278       O285   2.390       .  S
Zr279       O281   2.434       .  S
Zr279       O303   2.438       .  S
Zr279       O305   2.450       .  S
Zr279       O283   2.395       .  S
Zr279       O286   2.401       .  S
Zr280       O306   2.435       .  S
Zr280       O307   2.437       .  S
Zr280       O282   2.438       .  S
Zr280       O283   2.389       .  S
Zr280       O284   2.369       .  S
O281        H318   0.990       .  S
O282        H313   0.990       .  S
O282        H327   0.990       .  S
O284        H310   0.962       .  S
O285       Zr295   2.389       .  S
O286       Zr295   2.374       .  S
O286        H311   0.967   1_554  S
C287       C3337   1.477       .  S
C288       C3353   1.487       .  S
C289       C3265   1.488       .  S
O290        H326   0.990       .  S
O291        C293   1.284       .  A
O292        C293   1.287       .  A
C293       C3281   1.483       .  S
O294       Zr295   2.437       .  S
O294        H323   0.990       .  S
Zr295       O298   2.437   1_554  S
Zr295       O299   2.438   1_554  S
Zr295       O300   2.390   1_554  S
O296        C301   1.287       .  A
O297        H314   0.990       .  S
O297        H329   0.990   1_556  S
O298        H315   0.990       .  S
O299        H319   0.990       .  S
O299        H328   0.990       .  S
O300        C301   1.276       .  A
C301       C3313   1.481       .  S
O302        H321   0.991   1_556  S
O302        H325   0.990       .  S
O303        H317   0.990       .  S
O303        H324   0.990       .  S
O304        C308   1.283       .  A
O305        C308   1.288       .  A
O306        H316   0.990       .  S
O307        H320   0.990       .  S
C308       C3297   1.485       .  S
Zr331       O332   2.441       .  S
Zr331       O333   2.442       .  S
Zr331       O334   2.464       .  S
Zr331       O337   2.440       .  S
Zr331       O339   2.388       .  S
Zr331       O340   2.385       .  S
Zr331       O341   2.405       .  S
Zr331       O342   2.411       .  S
O332        H388   0.990       .  S
O332        H396   0.990       .  S
O333        C353   1.286       .  A
O334        C355   1.288       .  A
O335       Zr345   2.434       .  S
O335        C354   1.285       .  A
O336       Zr344   2.404       .  S
O336        C355   1.280       .  A
O337        C354   1.287       .  A
O338       Zr346   2.409       .  S
O338        C353   1.280       .  A
O339       Zr344   2.400       .  S
O339       Zr346   2.386       .  S
O340       Zr345   2.384       .  S
O340       Zr346   2.361       .  S
O340        H375   0.966       .  S
O341       Zr344   2.402       .  S
O341       Zr361   2.372       .  S
O341        H378   0.964       .  S
O342       Zr345   2.393       .  S
O342       Zr361   2.395       .  S
Zr343       O368   2.443       .  S
Zr343       O362   2.446       .  S
Zr343       O370   2.430       .  S
Zr343       O358   2.447       .  S
Zr343       O349   2.413       .  S
Zr343       O350   2.407       .  S
Zr343       O351   2.371       .  S
Zr343       O352   2.390       .  S
Zr344       O363   2.437       .  S
Zr344       O356   2.435       .  S
Zr344       O357   2.429       .  S
Zr344       O350   2.387       .  S
Zr344       O351   2.387       .  S
Zr345       O347   2.433       .  S
Zr345       O369   2.438       .  S
Zr345       O371   2.418       .  S
Zr345       O349   2.400       .  S
Zr345       O352   2.396       .  S
Zr346       O372   2.436       .  S
Zr346       O373   2.436       .  S
Zr346       O348   2.437       .  S
Zr346       O349   2.397       .  S
Zr346       O350   2.377       .  S
O347        H384   0.990       .  S
O348        H379   0.990       .  S
O348        H393   0.990       .  S
O350        H376   0.964       .  S
O351       Zr361   2.387       .  S
O352       Zr361   2.376       .  S
O352        H377   0.966       .  S
C353       C3321   1.484       .  S
C354       C3249   1.487       .  S
C355       C3201   1.465       .  S
O356        H392   0.990       .  S
O357        C359   1.284       .  A
O358        C359   1.287       .  A
C359       C3217   1.485       .  S
O360       Zr361   2.439       .  S
O360        H389   0.990       .  S
Zr361       O364   2.438       .  S
Zr361       O365   2.439       .  S
Zr361       O366   2.394       .  S
O362        C367   1.286       .  A
O363        H380   0.990       .  S
O363        H395   0.990       .  S
O364        H381   0.990       .  S
O365        H385   0.990       .  S
O365        H394   0.990       .  S
O366        C367   1.277       .  A
C367       C3329   1.479       .  S
O368        H387   0.990       .  S
O368        H391   0.990       .  S
O369        H383   0.990       .  S
O369        H390   0.990       .  S
O370        C374   1.282       .  A
O371        C374   1.282       .  A
O372        H382   0.990       .  S
O373        H386   0.990       .  S
C374       C3241   1.470       .  S
Zr397       O398   2.441       .  S
Zr397       O399   2.452       .  S
Zr397       O400   2.489       .  S
Zr397       O403   2.449       .  S
Zr397       O405   2.386       .  S
Zr397       O406   2.387       .  S
Zr397       O407   2.407       .  S
Zr397       O408   2.416       .  S
O398        H454   0.990       .  S
O398        H462   0.990       .  S
O399        C419   1.288       .  A
O400        C421   1.293       .  A
O401       Zr411   2.430       .  S
O401        C420   1.285       .  A
O402       Zr410   2.406       .  S
O402        C421   1.281       .  A
O403        C420   1.289       .  A
O404       Zr412   2.396       .  S
O404        C419   1.277       .  A
O405       Zr410   2.402       .  S
O405       Zr412   2.391       .  S
O406       Zr411   2.388       .  S
O406       Zr412   2.369       .  S
O406        H441   0.966       .  S
O407       Zr410   2.402       .  S
O407       Zr427   2.379       .  S
O407        H444   0.964       .  S
O408       Zr411   2.390       .  S
O408       Zr427   2.389       .  S
Zr409       O434   2.441       .  S
Zr409       O428   2.452       .  S
Zr409       O436   2.455       .  S
Zr409       O424   2.463       .  S
Zr409       O415   2.407       .  S
Zr409       O416   2.409       .  S
Zr409       O417   2.378       .  S
Zr409       O418   2.396       .  S
Zr410       O429   2.437       .  S
Zr410       O422   2.437       .  S
Zr410       O423   2.426       .  S
Zr410       O416   2.396       .  S
Zr410       O417   2.386       .  S
Zr411       O413   2.435       .  S
Zr411       O435   2.436       .  S
Zr411       O437   2.422       .  S
Zr411       O415   2.393       .  S
Zr411       O418   2.393       .  S
Zr412       O438   2.438       .  S
Zr412       O439   2.434       .  S
Zr412       O414   2.437       .  S
Zr412       O415   2.389       .  S
Zr412       O416   2.371       .  S
O413        H450   0.990       .  S
O414        H445   0.990       .  S
O414        H459   0.990       .  S
O416        H442   0.964       .  S
O417       Zr427   2.387       .  S
O418       Zr427   2.373       .  S
O418        H443   0.966       .  S
C419       C3193   1.483       .  S
C420       C3345   1.493       .  S
C421       C3145   1.485       .  S
O422        H458   0.990       .  S
O423        C425   1.284       .  A
O424        C425   1.289       .  A
C425       C3585   1.484       .  S
O426       Zr427   2.437       .  S
O426        H455   0.990       .  S
Zr427       O430   2.437       .  S
Zr427       O431   2.438       .  S
Zr427       O432   2.396       .  S
O428        C433   1.287       .  A
O429        H446   0.990       .  S
O429        H461   0.990       .  S
O430        H447   0.990       .  S
O431        H451   0.990       .  S
O431        H460   0.990       .  S
O432        C433   1.278       .  A
C433       C3169   1.482       .  S
O434        H453   0.991       .  S
O434        H457   0.990       .  S
O435        H449   0.990       .  S
O435        H456   0.990       .  S
O436        C440   1.288       .  A
O437        C440   1.284       .  A
O438        H448   0.990       .  S
O439        H452   0.990       .  S
C440       C3153   1.485       .  S
Zr463       O464   2.441       .  S
Zr463       O465   2.444       .  S
Zr463       O466   2.452       .  S
Zr463       O469   2.417       .  S
Zr463       O471   2.379       .  S
Zr463       O472   2.388       .  S
Zr463       O473   2.407       .  S
Zr463       O474   2.403       .  S
O464        H520   0.990       .  S
O464        H528   0.991       .  S
O465        C485   1.286       .  A
O466        C487   1.286       .  A
O467       Zr477   2.458       .  S
O467        C486   1.289       .  A
O468       Zr476   2.405       .  S
O468        C487   1.279       .  A
O469        C486   1.282       .  A
O470       Zr478   2.398       .  S
O470        C485   1.278       .  A
O471       Zr476   2.393       .  S
O471       Zr478   2.381       .  S
O472       Zr477   2.391       .  S
O472       Zr478   2.376       .  S
O472        H507   0.966       .  S
O473       Zr476   2.394       .  S
O473       Zr493   2.378       .  S
O473        H510   0.965       .  S
O474       Zr477   2.383       .  S
O474       Zr493   2.383       .  S
Zr475       O500   2.442       .  S
Zr475       O494   2.456       .  S
Zr475       O502   2.433       .  S
Zr475       O490   2.465       .  S
Zr475       O481   2.408       .  S
Zr475       O482   2.411       .  S
Zr475       O483   2.374       .  S
Zr475       O484   2.399       .  S
Zr476       O495   2.436       .  S
Zr476       O488   2.436       .  S
Zr476       O489   2.413       .  S
Zr476       O482   2.390       .  S
Zr476       O483   2.392       .  S
Zr477       O479   2.434       .  S
Zr477       O501   2.438       .  S
Zr477       O503   2.422       .  S
Zr477       O481   2.394       .  S
Zr477       O484   2.404       .  S
Zr478       O504   2.436       .  S
Zr478       O505   2.437       .  S
Zr478       O480   2.437       .  S
Zr478       O481   2.382       .  S
Zr478       O482   2.382       .  S
O479        H516   0.990       .  S
O480        H511   0.990       .  S
O480        H525   0.990       .  S
O482        H508   0.966       .  S
O483       Zr493   2.391       .  S
O484       Zr493   2.376       .  S
O484        H509   0.963       .  S
C485       C3177   1.478       .  S
C486       C3257   1.490       .  S
C487       C3105   1.464       .  S
O488        H524   0.990       .  S
O489        C491   1.281       .  A
O490        C491   1.289       .  A
C491       C3529   1.486       .  S
O492       Zr493   2.436       .  S
O492        H521   0.990       .  S
Zr493       O496   2.434       .  S
Zr493       O497   2.436       .  S
Zr493       O498   2.395       .  S
O494        C499   1.287       .  A
O495        H512   0.990       .  S
O495        H527   0.990       .  S
O496        H513   0.990       .  S
O497        H517   0.990       .  S
O497        H526   0.990       .  S
O498        C499   1.278       .  A
C499       C3185   1.485   1_556  S
O500        H519   0.991       .  S
O500        H523   0.990       .  S
O501        H515   0.990       .  S
O501        H522   0.990       .  S
O502        C506   1.285       .  A
O503        C506   1.284       .  A
O504        H514   0.990       .  S
O505        H518   0.990       .  S
C506       C3121   1.474       .  S
Zr529       O530   2.443       .  S
Zr529       O531   2.479       .  S
Zr529       O532   2.449       .  S
Zr529       O535   2.463       .  S
Zr529       O537   2.393       .  S
Zr529       O538   2.388       .  S
Zr529       O539   2.428       .  S
Zr529       O540   2.392       .  S
O530        H586   0.990       .  S
O530        H594   0.991       .  S
O531        C551   1.291       .  A
O532        C553   1.287       .  A
O533       Zr543   2.425       .  S
O533        C552   1.284       .  A
O534       Zr542   2.437       .  S
O534        C553   1.286       .  A
O535        C552   1.290       .  A
O536       Zr544   2.403       .  S
O536        C551   1.278       .  A
O537       Zr542   2.408       .  S
O537       Zr544   2.379       .  S
O538       Zr543   2.389       .  S
O538       Zr544   2.389       .  S
O538        H573   0.965       .  S
O539       Zr542   2.412       .  S
O539       Zr559   2.398       .  S
O539        H576   0.964       .  S
O540       Zr543   2.372       .  S
O540       Zr559   2.380       .  S
Zr541       O566   2.441       .  S
Zr541       O560   2.447       .  S
Zr541       O568   2.454       .  S
Zr541       O556   2.414       .  S
Zr541       O547   2.393       .  S
Zr541       O548   2.420       .  S
Zr541       O549   2.377       .  S
Zr541       O550   2.378       .  S
Zr542       O561   2.437       .  S
Zr542       O554   2.438       .  S
Zr542       O555   2.465       .  S
Zr542       O548   2.404       .  S
Zr542       O549   2.393       .  S
Zr543       O545   2.437       .  S
Zr543       O567   2.438       .  S
Zr543       O569   2.409       .  S
Zr543       O547   2.386       .  S
Zr543       O550   2.397       .  S
Zr544       O570   2.435       .  S
Zr544       O571   2.436       .  S
Zr544       O546   2.438       .  S
Zr544       O547   2.388       .  S
Zr544       O548   2.395       .  S
O545        H582   0.990       .  S
O546        H577   0.990       .  S
O546        H591   0.990       .  S
O548        H574   0.966       .  S
O549       Zr559   2.370       .  S
O550       Zr559   2.386       .  S
O550        H575   0.966       .  S
C551       C3073   1.481       .  S
C552       C3161   1.490       .  S
C553       C3049   1.487       .  S
O554        H590   0.990       .  S
O555        C557   1.290       .  A
O556        C557   1.281       .  A
C557       C3089   1.491       .  S
O558       Zr559   2.437       .  S
O558        H587   0.990       .  S
Zr559       O562   2.435       .  S
Zr559       O563   2.438       .  S
Zr559       O564   2.417       .  S
O560        C565   1.286       .  A
O561        H578   0.990       .  S
O561        H593   0.990       .  S
O562        H579   0.990       .  S
O563        H583   0.990       .  S
O563        H592   0.990       .  S
O564        C565   1.281       .  A
C565       C3057   1.489       .  S
O566        H585   0.990       .  S
O566        H589   0.990       .  S
O567        H581   0.990       .  S
O567        H588   0.990       .  S
O568        C572   1.287       .  A
O569        C572   1.281       .  A
O570        H580   0.990       .  S
O571        H584   0.990       .  S
C572       C3033   1.478       .  S
Zr595       O596   2.443       .  S
Zr595       O597   2.450       .  S
Zr595       O598   2.446       .  S
Zr595       O601   2.445       .  S
Zr595       O603   2.387       .  S
Zr595       O604   2.383       .  S
Zr595       O605   2.413       .  S
Zr595       O606   2.394       .  S
O596        H652   0.990       .  S
O596        H660   0.991       .  S
O597        C617   1.287       .  A
O598        C619   1.286       .  A
O599       Zr609   2.407       .  S
O599        C618   1.281       .  A
O600       Zr608   2.437       .  S
O600        C619   1.286       .  A
O601        C618   1.287       .  A
O602       Zr610   2.423       .  S
O602        C617   1.282       .  A
O603       Zr608   2.405       .  S
O603       Zr610   2.384       .  S
O604       Zr609   2.386       .  S
O604       Zr610   2.379       .  S
O604        H639   0.966       .  S
O605       Zr608   2.410       .  S
O605       Zr625   2.389       .  S
O605        H642   0.964       .  S
O606       Zr609   2.381       .  S
O606       Zr625   2.373       .  S
Zr607       O632   2.442   1_556  S
Zr607       O626   2.471   1_556  S
Zr607       O634   2.459       .  S
Zr607       O622   2.410   1_556  S
Zr607       O613   2.396       .  S
Zr607       O614   2.423       .  S
Zr607       O615   2.378   1_556  S
Zr607       O616   2.380       .  S
Zr608       O627   2.436   1_556  S
Zr608       O620   2.436       .  S
Zr608       O621   2.459       .  S
Zr608       O614   2.398       .  S
Zr608       O615   2.400   1_556  S
Zr609       O611   2.438       .  S
Zr609       O633   2.438       .  S
Zr609       O635   2.406       .  S
Zr609       O613   2.376       .  S
Zr609       O616   2.398       .  S
Zr610       O636   2.438       .  S
Zr610       O637   2.435       .  S
Zr610       O612   2.437       .  S
Zr610       O613   2.382       .  S
Zr610       O614   2.399       .  S
O611        H648   0.990       .  S
O612        H643   0.990       .  S
O612        H657   0.990       .  S
O614        H640   0.965       .  S
O615       Zr625   2.383   1_554  S
O616       Zr625   2.384       .  S
O616        H641   0.965   1_556  S
C617       C3065   1.488       .  S
C618       C3129   1.475       .  S
C619       C2993   1.487       .  S
O620        H656   0.990       .  S
O621        C623   1.288   1_556  A
O622        C623   1.280       .  A
C623       C3017   1.486       .  S
O624       Zr625   2.435       .  S
O624        H653   0.990       .  S
Zr625       O628   2.434   1_556  S
Zr625       O629   2.438   1_556  S
Zr625       O630   2.393   1_556  S
O626        C631   1.289       .  A
O627        H644   0.990       .  S
O627        H659   0.990       .  S
O628        H645   0.990       .  S
O629        H649   0.990       .  S
O629        H658   0.990   1_554  S
O630        C631   1.276       .  A
C631       C3081   1.478       .  S
O632        H651   0.991       .  S
O632        H655   0.990       .  S
O633        H647   0.990       .  S
O633        H654   0.990       .  S
O634        C638   1.288       .  A
O635        C638   1.280       .  A
O636        H646   0.990       .  S
O637        H650   0.990       .  S
C638       C2977   1.473       .  S
Zr661       O662   2.443       .  S
Zr661       O663   2.436       .  S
Zr661       O664   2.454       .  S
Zr661       O667   2.437       .  S
Zr661       O669   2.386       .  S
Zr661       O670   2.388       .  S
Zr661       O671   2.407       .  S
Zr661       O672   2.395       .  S
O662        H718   0.990       .  S
O662        H726   0.991       .  S
O663        C683   1.284       .  A
O664        C685   1.285       .  A
O665       Zr675   2.425       .  S
O665        C684   1.284       .  A
O666       Zr674   2.411       .  S
O666        C685   1.280       .  A
O667        C684   1.285       .  A
O668       Zr676   2.413       .  S
O668        C683   1.281       .  A
O669       Zr674   2.393       .  S
O669       Zr676   2.382       .  S
O670       Zr675   2.380       .  S
O670       Zr676   2.380       .  S
O670        H705   0.966       .  S
O671       Zr674   2.398       .  S
O671       Zr691   2.392       .  S
O671        H708   0.965       .  S
O672       Zr675   2.384       .  S
O672       Zr691   2.375       .  S
Zr673       O698   2.441       .  S
Zr673       O692   2.456       .  S
Zr673       O700   2.461       .  S
Zr673       O688   2.448       .  S
Zr673       O679   2.399       .  S
Zr673       O680   2.418       .  S
Zr673       O681   2.382       .  S
Zr673       O682   2.390       .  S
Zr674       O693   2.439       .  S
Zr674       O686   2.439       .  S
Zr674       O687   2.416       .  S
Zr674       O680   2.395       .  S
Zr674       O681   2.395       .  S
Zr675       O677   2.435       .  S
Zr675       O699   2.438       .  S
Zr675       O701   2.421       .  S
Zr675       O679   2.382       .  S
Zr675       O682   2.400       .  S
Zr676       O702   2.436       .  S
Zr676       O703   2.436       .  S
Zr676       O678   2.436       .  S
Zr676       O679   2.382       .  S
Zr676       O680   2.395       .  S
O677        H714   0.990       .  S
O678        H709   0.990       .  S
O678        H723   0.990       .  S
O680        H706   0.964       .  S
O681       Zr691   2.378       .  S
O682       Zr691   2.387       .  S
O682        H707   0.966       .  S
C683       C2961   1.480       .  S
C684       C2929   1.473       .  S
C685       C2921   1.479       .  S
O686        H722   0.990       .  S
O687        C689   1.281       .  A
O688        C689   1.287       .  A
C689       C3009   1.479       .  S
O690       Zr691   2.435       .  S
O690        H719   0.990       .  S
Zr691       O694   2.435       .  S
Zr691       O695   2.438       .  S
Zr691       O696   2.396       .  S
O692        C697   1.287       .  A
O693        H710   0.990       .  S
O693        H725   0.990       .  S
O694        H711   0.990       .  S
O695        H715   0.990       .  S
O695        H724   0.990       .  S
O696        C697   1.278       .  A
C697       C2953   1.485   1_554  S
O698        H717   0.991       .  S
O698        H721   0.990       .  S
O699        H713   0.990       .  S
O699        H720   0.990       .  S
O700        C704   1.289       .  A
O701        C704   1.283       .  A
O702        H712   0.990       .  S
O703        H716   0.991       .  S
C704       C2905   1.475       .  S
Zr727       O728   2.443       .  S
Zr727       O729   2.463       .  S
Zr727       O730   2.457       .  S
Zr727       O733   2.456       .  S
Zr727       O735   2.386       .  S
Zr727       O736   2.381       .  S
Zr727       O737   2.415       .  S
Zr727       O738   2.402       .  S
O728        H784   0.990       .  S
O728        H792   0.990       .  S
O729        C749   1.289       .  A
O730        C751   1.288       .  A
O731       Zr741   2.421       .  S
O731        C750   1.283       .  A
O732       Zr740   2.433       .  S
O732        C751   1.284       .  A
O733        C750   1.290       .  A
O734       Zr742   2.396       .  S
O734        C749   1.277       .  A
O735       Zr740   2.402       .  S
O735       Zr742   2.384       .  S
O736       Zr741   2.387       .  S
O736       Zr742   2.384       .  S
O736        H771   0.967       .  S
O737       Zr740   2.402       .  S
O737       Zr757   2.390       .  S
O737        H774   0.963       .  S
O738       Zr741   2.385       .  S
O738       Zr757   2.389       .  S
Zr739       O764   2.441       .  S
Zr739       O758   2.439       .  S
Zr739       O766   2.467       .  S
Zr739       O754   2.443       .  S
Zr739       O745   2.393       .  S
Zr739       O746   2.414       .  S
Zr739       O747   2.384       .  S
Zr739       O748   2.387       .  S
Zr740       O759   2.436       .  S
Zr740       O752   2.439       .  S
Zr740       O753   2.439       .  S
Zr740       O746   2.402       .  S
Zr740       O747   2.396       .  S
Zr741       O743   2.435       .  S
Zr741       O765   2.437       .  S
Zr741       O767   2.412       .  S
Zr741       O745   2.388       .  S
Zr741       O748   2.398       .  S
Zr742       O768   2.436       .  S
Zr742       O769   2.435       .  S
Zr742       O744   2.437       .  S
Zr742       O745   2.383       .  S
Zr742       O746   2.382       .  S
O743        H780   0.990       .  S
O744        H775   0.990       .  S
O744        H789   0.990       .  S
O746        H772   0.964       .  S
O747       Zr757   2.376       .  S
O748       Zr757   2.384       .  S
O748        H773   0.966       .  S
C749       C2945   1.483       .  S
C750       C2881   1.486       .  S
C751       C2865   1.488       .  S
O752        H788   0.990       .  S
O753        C755   1.286       .  A
O754        C755   1.287       .  A
C755       C3097   1.486       .  S
O756       Zr757   2.434       .  S
O756        H785   0.990       .  S
Zr757       O760   2.437       .  S
Zr757       O761   2.438       .  S
Zr757       O762   2.408       .  S
O758        C763   1.284       .  A
O759        H776   0.990       .  S
O759        H791   0.990       .  S
O760        H777   0.990       .  S
O761        H781   0.990       .  S
O761        H790   0.990       .  S
O762        C763   1.279       .  A
C763       C2969   1.482       .  S
O764        H783   0.990       .  S
O764        H787   0.990       .  S
O765        H779   0.990       .  S
O765        H786   0.990       .  S
O766        C770   1.290       .  A
O767        C770   1.281       .  A
O768        H778   0.990       .  S
O769        H782   0.990       .  S
C770       C2857   1.473       .  S
Zr793       O794   2.443       .  S
Zr793       O795   2.460       .  S
Zr793       O796   2.484       .  S
Zr793       O799   2.425       .  S
Zr793       O801   2.385       .  S
Zr793       O802   2.389       .  S
Zr793       O803   2.406       .  S
Zr793       O804   2.416       .  S
O794        H850   0.990       .  S
O794        H858   0.991       .  S
O795        C815   1.289       .  A
O796        C817   1.291       .  A
O797       Zr807   2.459       .  S
O797        C816   1.289       .  A
O798       Zr806   2.382       .  S
O798        C817   1.276       .  A
O799        C816   1.285       .  A
O800       Zr808   2.405       .  S
O800        C815   1.279       .  A
O801       Zr806   2.401       .  S
O801       Zr808   2.386       .  S
O802       Zr807   2.387       .  S
O802       Zr808   2.374       .  S
O802        H837   0.965       .  S
O803       Zr806   2.398       .  S
O803       Zr823   2.388       .  S
O803        H840   0.963       .  S
O804       Zr807   2.399       .  S
O804       Zr823   2.393       .  S
Zr805       O830   2.441   1_554  S
Zr805       O824   2.458   1_554  S
Zr805       O832   2.431       .  S
Zr805       O820   2.450       .  S
Zr805       O811   2.405       .  S
Zr805       O812   2.412       .  S
Zr805       O813   2.370       .  S
Zr805       O814   2.397       .  S
Zr806       O825   2.438   1_554  S
Zr806       O818   2.435       .  S
Zr806       O819   2.416       .  S
Zr806       O812   2.388       .  S
Zr806       O813   2.382       .  S
Zr807       O809   2.434       .  S
Zr807       O831   2.438       .  S
Zr807       O833   2.445       .  S
Zr807       O811   2.394       .  S
Zr807       O814   2.406       .  S
Zr808       O834   2.436       .  S
Zr808       O835   2.436       .  S
Zr808       O810   2.437       .  S
Zr808       O811   2.388       .  S
Zr808       O812   2.385       .  S
O809        H846   0.990       .  S
O810        H841   0.990       .  S
O810        H855   0.990       .  S
O812        H838   0.964       .  S
O813       Zr823   2.381       .  S
O814       Zr823   2.379       .  S
O814        H839   0.965       .  S
C815       C2817   1.488       .  S
C816       C2833   1.491       .  S
C817       C2761   1.489       .  S
O818        H854   0.990       .  S
O819        C821   1.281       .  A
O820        C821   1.286       .  A
C821       C2785   1.475   1_554  S
O822       Zr823   2.436       .  S
O822        H851   0.990       .  S
Zr823       O826   2.436   1_554  S
Zr823       O827   2.438   1_554  S
Zr823       O828   2.406   1_554  S
O824        C829   1.288       .  A
O825        H842   0.990       .  S
O825        H857   0.990   1_556  S
O826        H843   0.989       .  S
O827        H847   0.990   1_556  S
O827        H856   0.990       .  S
O828        C829   1.279       .  A
C829       C2809   1.490       .  S
O830        H849   0.991   1_556  S
O830        H853   0.990       .  S
O831        H845   0.990       .  S
O831        H852   0.990       .  S
O832        C836   1.285       .  A
O833        C836   1.288       .  A
O834        H844   0.990       .  S
O835        H848   0.990       .  S
C836       C2777   1.488       .  S
Zr859       O860   2.443       .  S
Zr859       O861   2.456       .  S
Zr859       O862   2.465       .  S
Zr859       O865   2.434       .  S
Zr859       O867   2.384       .  S
Zr859       O868   2.382       .  S
Zr859       O869   2.407       .  S
Zr859       O870   2.412       .  S
O860        H916   0.990       .  S
O860        H924   0.991       .  S
O861        C881   1.288       .  A
O862        C883   1.288       .  A
O863       Zr873   2.440       .  S
O863        C882   1.286       .  A
O864       Zr872   2.399       .  S
O864        C883   1.279       .  A
O865        C882   1.286       .  A
O866       Zr874   2.407       .  S
O866        C881   1.280       .  A
O867       Zr872   2.402       .  S
O867       Zr874   2.383       .  S
O868       Zr873   2.384       .  S
O868       Zr874   2.373       .  S
O868        H903   0.966       .  S
O869       Zr872   2.402       .  S
O869       Zr889   2.377       .  S
O869        H906   0.965       .  S
O870       Zr873   2.384       .  S
O870       Zr889   2.397       .  S
Zr871       O896   2.441       .  S
Zr871       O890   2.458       .  S
Zr871       O898   2.445       .  S
Zr871       O886   2.462       .  S
Zr871       O877   2.414       .  S
Zr871       O878   2.412       .  S
Zr871       O879   2.376       .  S
Zr871       O880   2.393       .  S
Zr872       O891   2.438       .  S
Zr872       O884   2.434       .  S
Zr872       O885   2.427       .  S
Zr872       O878   2.395       .  S
Zr872       O879   2.388       .  S
Zr873       O875   2.434       .  S
Zr873       O897   2.438       .  S
Zr873       O899   2.415       .  S
Zr873       O877   2.399       .  S
Zr873       O880   2.397       .  S
Zr874       O900   2.434       .  S
Zr874       O901   2.436       .  S
Zr874       O876   2.439       .  S
Zr874       O877   2.396       .  S
Zr874       O878   2.376       .  S
O875        H912   0.990       .  S
O876        H907   0.990       .  S
O876        H921   0.990       .  S
O878        H904   0.964       .  S
O879       Zr889   2.385       .  S
O880       Zr889   2.375       .  S
O880        H905   0.965       .  S
C881       C2801   1.488       .  S
C882       C2737   1.490       .  S
C883       C2689   1.467       .  S
O884        H920   0.990       .  S
O885        C887   1.284       .  A
O886        C887   1.289       .  A
C887       C2729   1.486       .  S
O888       Zr889   2.437       .  S
O888        H917   0.990       .  S
Zr889       O892   2.437       .  S
Zr889       O893   2.441       .  S
Zr889       O894   2.404       .  S
O890        C895   1.288       .  A
O891        H908   0.990       .  S
O891        H923   0.990       .  S
O892        H909   0.990       .  S
O893        H913   0.990       .  S
O893        H922   0.990       .  S
O894        C895   1.278       .  A
C895       C2825   1.489       .  S
O896        H915   0.991       .  S
O896        H919   0.990       .  S
O897        H911   0.990       .  S
O897        H918   0.990       .  S
O898        C902   1.286       .  A
O899        C902   1.282       .  A
O900        H910   0.990       .  S
O901        H914   0.990       .  S
C902       C2705   1.476       .  S
Zr925       O926   2.442       .  S
Zr925       O927   2.450       .  S
Zr925       O928   2.469       .  S
Zr925       O931   2.429       .  S
Zr925       O933   2.382       .  S
Zr925       O934   2.391       .  S
Zr925       O935   2.420       .  S
Zr925       O936   2.410       .  S
O926        H982   0.990       .  S
O926        H990   0.990       .  S
O927        C947   1.287       .  A
O928        C949   1.287       .  A
O929       Zr939   2.457       .  S
O929        C948   1.289       .  A
O930       Zr938   2.411       .  S
O930        C949   1.276       .  A
O931        C948   1.285       .  A
O932       Zr940   2.422       .  S
O932        C947   1.282       .  A
O933       Zr938   2.407       .  S
O933       Zr940   2.376       .  S
O934       Zr939   2.395       .  S
O934       Zr940   2.376       .  S
O934        H969   0.964       .  S
O935       Zr938   2.400       .  S
O935       Zr955   2.385       .  S
O935        H972   0.966       .  S
O936       Zr939   2.395       .  S
O936       Zr955   2.389       .  S
Zr937       O962   2.441       .  S
Zr937       O956   2.470       .  S
Zr937       O964   2.438       .  S
Zr937       O952   2.443       .  S
Zr937       O943   2.410       .  S
Zr937       O944   2.418       .  S
Zr937       O945   2.373       .  S
Zr937       O946   2.390       .  S
Zr938       O957   2.436       .  S
Zr938       O950   2.436       .  S
Zr938       O951   2.429       .  S
Zr938       O944   2.397       .  S
Zr938       O945   2.390       .  S
Zr939       O941   2.435       .  S
Zr939       O963   2.438       .  S
Zr939       O965   2.449       .  S
Zr939       O943   2.395       .  S
Zr939       O946   2.403       .  S
Zr940       O966   2.434       .  S
Zr940       O967   2.435       .  S
Zr940       O942   2.439       .  S
Zr940       O943   2.398       .  S
Zr940       O944   2.385       .  S
O941        H978   0.990       .  S
O942        H973   0.990       .  S
O942        H987   0.990       .  S
O944        H970   0.963       .  S
O945       Zr955   2.388       .  S
O946       Zr955   2.382       .  S
O946        H971   0.966       .  S
C947       C2673   1.490       .  S
C948       C2841   1.494       .  S
C949       C2641   1.489       .  S
O950        H986   0.990       .  S
O951        C953   1.283       .  A
O952        C953   1.285       .  A
C953       C3041   1.473       .  S
O954       Zr955   2.436       .  S
O954        H983   0.990       .  S
Zr955       O958   2.436       .  S
Zr955       O959   2.440       .  S
Zr955       O960   2.403       .  S
O956        C961   1.288       .  A
O957        H974   0.990       .  S
O957        H989   0.989       .  S
O958        H975   0.990       .  S
O959        H979   0.990       .  S
O959        H988   0.990       .  S
O960        C961   1.278       .  A
C961       C2665   1.483       .  S
O962        H981   0.991       .  S
O962        H985   0.990       .  S
O963        H977   0.990       .  S
O963        H984   0.990       .  S
O964        C968   1.286       .  A
O965        C968   1.288       .  A
O966        H976   0.990       .  S
O967        H980   0.990       .  S
C968       C3577   1.494       .  S
Zr991       O992   2.443       .  S
Zr991       O993   2.475       .  S
Zr991       O994   2.472       .  S
Zr991       O997   2.434       .  S
Zr991       O999   2.382       .  S
Zr991      O1000   2.384       .  S
Zr991      O1001   2.414       .  S
Zr991      O1002   2.416       .  S
O992       H1048   0.990       .  S
O992       H1056   0.991       .  S
O993       C1013   1.291       .  A
O994       C1015   1.290       .  A
O995      Zr1005   2.433       .  S
O995       C1014   1.285       .  A
O996      Zr1004   2.407       .  S
O996       C1015   1.280       .  A
O997       C1014   1.285       .  A
O998      Zr1006   2.402       .  S
O998       C1013   1.277       .  A
O999      Zr1004   2.402       .  S
O999      Zr1006   2.387       .  S
O1000     Zr1005   2.386       .  S
O1000     Zr1006   2.376       .  S
O1000      H1035   0.966       .  S
O1001     Zr1004   2.404       .  S
O1001     Zr1021   2.386       .  S
O1001      H1038   0.964       .  S
O1002     Zr1005   2.389       .  S
O1002     Zr1021   2.398       .  S
Zr1003     O1028   2.441       .  S
Zr1003     O1022   2.455       .  S
Zr1003     O1030   2.444       .  S
Zr1003     O1018   2.454       .  S
Zr1003     O1009   2.405       .  S
Zr1003     O1010   2.411       .  S
Zr1003     O1011   2.378       .  S
Zr1003     O1012   2.392       .  S
Zr1004     O1023   2.437       .  S
Zr1004     O1016   2.434       .  S
Zr1004     O1017   2.428       .  S
Zr1004     O1010   2.395       .  S
Zr1004     O1011   2.389       .  S
Zr1005     O1007   2.435       .  S
Zr1005     O1029   2.439       .  S
Zr1005     O1031   2.410       .  S
Zr1005     O1009   2.392       .  S
Zr1005     O1012   2.400       .  S
Zr1006     O1032   2.437       .  S
Zr1006     O1033   2.436       .  S
Zr1006     O1008   2.437       .  S
Zr1006     O1009   2.392       .  S
Zr1006     O1010   2.371       .  S
O1007      H1044   0.990       .  S
O1008      H1039   0.990       .  S
O1008      H1053   0.990       .  S
O1010      H1036   0.964       .  S
O1011     Zr1021   2.379       .  S
O1012     Zr1021   2.372       .  S
O1012      H1037   0.966       .  S
C1013      C2657   1.480       .  S
C1014      C2745   1.486       .  S
C1015      C2633   1.477       .  S
O1016      H1052   0.990       .  S
O1017      C1019   1.284       .  A
O1018      C1019   1.288       .  A
C1019      C3001   1.476       .  S
O1020     Zr1021   2.434       .  S
O1020      H1049   0.990       .  S
Zr1021     O1024   2.436       .  S
Zr1021     O1025   2.438       .  S
Zr1021     O1026   2.416       .  S
O1022      C1027   1.288       .  A
O1023      H1040   0.990       .  S
O1023      H1055   0.990       .  S
O1024      H1041   0.990       .  S
O1025      H1045   0.990       .  S
O1025      H1054   0.990       .  S
O1026      C1027   1.281       .  A
C1027      C2681   1.491   1_556  S
O1028      H1047   0.991       .  S
O1028      H1051   0.990       .  S
O1029      H1043   0.990       .  S
O1029      H1050   0.990       .  S
O1030      C1034   1.287       .  A
O1031      C1034   1.281       .  A
O1032      H1042   0.990       .  S
O1033      H1046   0.990       .  S
C1034      C3513   1.476       .  S
Zr1057     O1058   2.443   1_554  S
Zr1057     O1059   2.455   1_554  S
Zr1057     O1060   2.461       .  S
Zr1057     O1063   2.429       .  S
Zr1057     O1065   2.381       .  S
Zr1057     O1066   2.388       .  S
Zr1057     O1067   2.410       .  S
Zr1057     O1068   2.415       .  S
O1058      H1114   0.990       .  S
O1058      H1122   0.991   1_556  S
O1059      C1079   1.287       .  A
O1060      C1081   1.286       .  A
O1061     Zr1071   2.443       .  S
O1061      C1080   1.286       .  A
O1062     Zr1070   2.415       .  S
O1062      C1081   1.280       .  A
O1063      C1080   1.284       .  A
O1064     Zr1072   2.391   1_556  S
O1064      C1079   1.277       .  A
O1065     Zr1070   2.393       .  S
O1065     Zr1072   2.392       .  S
O1066     Zr1071   2.386       .  S
O1066     Zr1072   2.372       .  S
O1066      H1101   0.967   1_554  S
O1067     Zr1070   2.396       .  S
O1067     Zr1087   2.373       .  S
O1067      H1104   0.963       .  S
O1068     Zr1071   2.391       .  S
O1068     Zr1087   2.399       .  S
Zr1069     O1094   2.441       .  S
Zr1069     O1088   2.437       .  S
Zr1069     O1096   2.438       .  S
Zr1069     O1084   2.460       .  S
Zr1069     O1075   2.409       .  S
Zr1069     O1076   2.399       .  S
Zr1069     O1077   2.374       .  S
Zr1069     O1078   2.398       .  S
Zr1070     O1089   2.437       .  S
Zr1070     O1082   2.435       .  S
Zr1070     O1083   2.411       .  S
Zr1070     O1076   2.391       .  S
Zr1070     O1077   2.389       .  S
Zr1071     O1073   2.436       .  S
Zr1071     O1095   2.436       .  S
Zr1071     O1097   2.417       .  S
Zr1071     O1075   2.400       .  S
Zr1071     O1078   2.403       .  S
Zr1072     O1098   2.437   1_554  S
Zr1072     O1099   2.436       .  S
Zr1072     O1074   2.435   1_554  S
Zr1072     O1075   2.384       .  S
Zr1072     O1076   2.375       .  S
O1073      H1110   0.990       .  S
O1074      H1105   0.990       .  S
O1074      H1119   0.990       .  S
O1076      H1102   0.964       .  S
O1077     Zr1087   2.379       .  S
O1078     Zr1087   2.368       .  S
O1078      H1103   0.965       .  S
C1079      C2585   1.483       .  S
C1080      C2609   1.481   1_554  S
C1081      C2753   1.468       .  S
O1082      H1118   0.990       .  S
O1083      C1085   1.282       .  A
O1084      C1085   1.289       .  A
C1085      C2561   1.486       .  S
O1086     Zr1087   2.435       .  S
O1086      H1115   0.990       .  S
Zr1087     O1090   2.437       .  S
Zr1087     O1091   2.439       .  S
Zr1087     O1092   2.404       .  S
O1088      C1093   1.284       .  A
O1089      H1106   0.990       .  S
O1089      H1121   0.990       .  S
O1090      H1107   0.990       .  S
O1091      H1111   0.990       .  S
O1091      H1120   0.990       .  S
O1092      C1093   1.279       .  A
C1093      C2593   1.481       .  S
O1094      H1113   0.990       .  S
O1094      H1117   0.990       .  S
O1095      H1109   0.990       .  S
O1095      H1116   0.990       .  S
O1096      C1100   1.285       .  A
O1097      C1100   1.282       .  A
O1098      H1108   0.990       .  S
O1099      H1112   0.990       .  S
C1100      C2545   1.475       .  S
Zr1123     O1124   2.441       .  S
Zr1123     O1125   2.451       .  S
Zr1123     O1126   2.476       .  S
Zr1123     O1129   2.449       .  S
Zr1123     O1131   2.388       .  S
Zr1123     O1132   2.388       .  S
Zr1123     O1133   2.408       .  S
Zr1123     O1134   2.410       .  S
O1124      H1180   0.990       .  S
O1124      H1188   0.990       .  S
O1125      C1145   1.287       .  A
O1126      C1147   1.290       .  A
O1127     Zr1137   2.428       .  S
O1127      C1146   1.285       .  A
O1128     Zr1136   2.404       .  S
O1128      C1147   1.280       .  A
O1129      C1146   1.288       .  A
O1130     Zr1138   2.398       .  S
O1130      C1145   1.278       .  A
O1131     Zr1136   2.401       .  S
O1131     Zr1138   2.387       .  S
O1132     Zr1137   2.384       .  S
O1132     Zr1138   2.373       .  S
O1132      H1167   0.966       .  S
O1133     Zr1136   2.402       .  S
O1133     Zr1153   2.373       .  S
O1133      H1170   0.964       .  S
O1134     Zr1137   2.388       .  S
O1134     Zr1153   2.388       .  S
Zr1135     O1160   2.440       .  S
Zr1135     O1154   2.451       .  S
Zr1135     O1162   2.451       .  S
Zr1135     O1150   2.470       .  S
Zr1135     O1141   2.413       .  S
Zr1135     O1142   2.410       .  S
Zr1135     O1143   2.379       .  S
Zr1135     O1144   2.394       .  S
Zr1136     O1155   2.436       .  S
Zr1136     O1148   2.435       .  S
Zr1136     O1149   2.419       .  S
Zr1136     O1142   2.395       .  S
Zr1136     O1143   2.385       .  S
Zr1137     O1139   2.435       .  S
Zr1137     O1161   2.437       .  S
Zr1137     O1163   2.408       .  S
Zr1137     O1141   2.395       .  S
Zr1137     O1144   2.395       .  S
Zr1138     O1164   2.435       .  S
Zr1138     O1165   2.436       .  S
Zr1138     O1140   2.439       .  S
Zr1138     O1141   2.395       .  S
Zr1138     O1142   2.374       .  S
O1139      H1176   0.990       .  S
O1140      H1171   0.990       .  S
O1140      H1185   0.990       .  S
O1142      H1168   0.962       .  S
O1143     Zr1153   2.386       .  S
O1144     Zr1153   2.369       .  S
O1144      H1169   0.966       .  S
C1145      C2601   1.483       .  S
C1146      C2537   1.492       .  S
C1147      C2697   1.469       .  S
O1148      H1184   0.990       .  S
O1149      C1151   1.283       .  A
O1150      C1151   1.290       .  A
C1151      C2521   1.487       .  S
O1152     Zr1153   2.436       .  S
O1152      H1181   0.990       .  S
Zr1153     O1156   2.437       .  S
Zr1153     O1157   2.436       .  S
Zr1153     O1158   2.397       .  S
O1154      C1159   1.287       .  A
O1155      H1172   0.990       .  S
O1155      H1187   0.990       .  S
O1156      H1173   0.990       .  S
O1157      H1177   0.990       .  S
O1157      H1186   0.990       .  S
O1158      C1159   1.278       .  A
C1159      C2577   1.483       .  S
O1160      H1179   0.990       .  S
O1160      H1183   0.990       .  S
O1161      H1175   0.990       .  S
O1161      H1182   0.990       .  S
O1162      C1166   1.288       .  A
O1163      C1166   1.281       .  A
O1164      H1174   0.990       .  S
O1165      H1178   0.990       .  S
C1166      C2497   1.480       .  S
Zr1189     O1190   2.441       .  S
Zr1189     O1191   2.449       .  S
Zr1189     O1192   2.472       .  S
Zr1189     O1195   2.435       .  S
Zr1189     O1197   2.381       .  S
Zr1189     O1198   2.390       .  S
Zr1189     O1199   2.407       .  S
Zr1189     O1200   2.409       .  S
O1190      H1246   0.990       .  S
O1190      H1254   0.990       .  S
O1191      C1211   1.286       .  A
O1192      C1213   1.290       .  A
O1193     Zr1203   2.444       .  S
O1193      C1212   1.287       .  A
O1194     Zr1202   2.409       .  S
O1194      C1213   1.280       .  A
O1195      C1212   1.285       .  A
O1196     Zr1204   2.421       .  S
O1196      C1211   1.282       .  A
O1197     Zr1202   2.401       .  S
O1197     Zr1204   2.380       .  S
O1198     Zr1203   2.391       .  S
O1198     Zr1204   2.375       .  S
O1198      H1233   0.965       .  S
O1199     Zr1202   2.399       .  S
O1199     Zr1219   2.383       .  S
O1199      H1236   0.964       .  S
O1200     Zr1203   2.392       .  S
O1200     Zr1219   2.386       .  S
Zr1201     O1226   2.443       .  S
Zr1201     O1220   2.475       .  S
Zr1201     O1228   2.442       .  S
Zr1201     O1216   2.451       .  S
Zr1201     O1207   2.415       .  S
Zr1201     O1208   2.419       .  S
Zr1201     O1209   2.374       .  S
Zr1201     O1210   2.391       .  S
Zr1202     O1221   2.436       .  S
Zr1202     O1214   2.435       .  S
Zr1202     O1215   2.426       .  S
Zr1202     O1208   2.392       .  S
Zr1202     O1209   2.393       .  S
Zr1203     O1205   2.435       .  S
Zr1203     O1227   2.439       .  S
Zr1203     O1229   2.432       .  S
Zr1203     O1207   2.391       .  S
Zr1203     O1210   2.399       .  S
Zr1204     O1230   2.435       .  S
Zr1204     O1231   2.437       .  S
Zr1204     O1206   2.438       .  S
Zr1204     O1207   2.397       .  S
Zr1204     O1208   2.387       .  S
O1205      H1242   0.990       .  S
O1206      H1237   0.990       .  S
O1206      H1251   0.990       .  S
O1208      H1234   0.964       .  S
O1209     Zr1219   2.386       .  S
O1210     Zr1219   2.380       .  S
O1210      H1235   0.967       .  S
C1211      C2473   1.489       .  S
C1212      C2529   1.485       .  S
C1213      C2649   1.478       .  S
O1214      H1250   0.990       .  S
O1215      C1217   1.284       .  A
O1216      C1217   1.286       .  A
C1217      C2913   1.483       .  S
O1218     Zr1219   2.436       .  S
O1218      H1247   0.990       .  S
Zr1219     O1222   2.436       .  S
Zr1219     O1223   2.438       .  S
Zr1219     O1224   2.392       .  S
O1220      C1225   1.290       .  A
O1221      H1238   0.990       .  S
O1221      H1253   0.990       .  S
O1222      H1239   0.990       .  S
O1223      H1243   0.990       .  S
O1223      H1252   0.990       .  S
O1224      C1225   1.276       .  A
C1225      C2481   1.480       .  S
O1226      H1245   0.991       .  S
O1226      H1249   0.990       .  S
O1227      H1241   0.990       .  S
O1227      H1248   0.990       .  S
O1228      C1232   1.286       .  A
O1229      C1232   1.285       .  A
O1230      H1240   0.990       .  S
O1231      H1244   0.990       .  S
C1232      C3425   1.482       .  S
Zr1255     O1256   2.441       .  S
Zr1255     O1257   2.452       .  S
Zr1255     O1258   2.467       .  S
Zr1255     O1261   2.433       .  S
Zr1255     O1263   2.387       .  S
Zr1255     O1264   2.386       .  S
Zr1255     O1265   2.409       .  S
Zr1255     O1266   2.412       .  S
O1256      H1312   0.990       .  S
O1256      H1320   0.990       .  S
O1257      C1277   1.288       .  A
O1258      C1279   1.289       .  A
O1259     Zr1269   2.440       .  S
O1259      C1278   1.286       .  A
O1260     Zr1268   2.397       .  S
O1260      C1279   1.278       .  A
O1261      C1278   1.286       .  A
O1262     Zr1270   2.412       .  S
O1262      C1277   1.280       .  A
O1263     Zr1268   2.400       .  S
O1263     Zr1270   2.386       .  S
O1264     Zr1269   2.389       .  S
O1264     Zr1270   2.369       .  S
O1264      H1299   0.966       .  S
O1265     Zr1268   2.403       .  S
O1265     Zr1285   2.390       .  S
O1265      H1302   0.966       .  S
O1266     Zr1269   2.390       .  S
O1266     Zr1285   2.396       .  S
Zr1267     O1292   2.442       .  S
Zr1267     O1286   2.438       .  S
Zr1267     O1294   2.417       .  S
Zr1267     O1282   2.442       .  S
Zr1267     O1273   2.402       .  S
Zr1267     O1274   2.409       .  S
Zr1267     O1275   2.370       .  S
Zr1267     O1276   2.392       .  S
Zr1268     O1287   2.441       .  S
Zr1268     O1280   2.435       .  S
Zr1268     O1281   2.428       .  S
Zr1268     O1274   2.392       .  S
Zr1268     O1275   2.385       .  S
Zr1269     O1271   2.435       .  S
Zr1269     O1293   2.439       .  S
Zr1269     O1295   2.429       .  S
Zr1269     O1273   2.390       .  S
Zr1269     O1276   2.401       .  S
Zr1270     O1296   2.437       .  S
Zr1270     O1297   2.436       .  S
Zr1270     O1272   2.437       .  S
Zr1270     O1273   2.385       .  S
Zr1270     O1274   2.390       .  S
O1271      H1308   0.990       .  S
O1272      H1303   0.990       .  S
O1272      H1317   0.990       .  S
O1274      H1300   0.965       .  S
O1275     Zr1285   2.383       .  S
O1276     Zr1285   2.378       .  S
O1276      H1301   0.965       .  S
C1277      C2489   1.478       .  S
C1278      C2617   1.490       .  S
C1279      C2625   1.468       .  S
O1280      H1316   0.990       .  S
O1281      C1283   1.282       .  A
O1282      C1283   1.284       .  A
C1283      C2873   1.479       .  S
O1284     Zr1285   2.437       .  S
O1284      H1313   0.990       .  S
Zr1285     O1288   2.434       .  S
Zr1285     O1289   2.440       .  S
Zr1285     O1290   2.424       .  S
O1286      C1291   1.284       .  A
O1287      H1304   0.990       .  S
O1287      H1319   0.990       .  S
O1288      H1305   0.990       .  S
O1289      H1309   0.990       .  S
O1289      H1318   0.990       .  S
O1290      C1291   1.282       .  A
C1291      C2465   1.485       .  S
O1292      H1311   0.991       .  S
O1292      H1315   0.990       .  S
O1293      H1307   0.990       .  S
O1293      H1314   0.990       .  S
O1294      C1298   1.281       .  A
O1295      C1298   1.285       .  A
O1296      H1306   0.990       .  S
O1297      H1310   0.990       .  S
C1298      C3385   1.474       .  S
Zr1321     O1322   2.441       .  S
Zr1321     O1323   2.464       .  S
Zr1321     O1324   2.466       .  S
Zr1321     O1327   2.439       .  S
Zr1321     O1329   2.381       .  S
Zr1321     O1330   2.390       .  S
Zr1321     O1331   2.416       .  S
Zr1321     O1332   2.402       .  S
O1322      H1378   0.990       .  S
O1322      H1386   0.991       .  S
O1323      C1343   1.289       .  A
O1324      C1345   1.289       .  A
O1325     Zr1335   2.423       .  S
O1325      C1344   1.283       .  A
O1326     Zr1334   2.418       .  S
O1326      C1345   1.282       .  A
O1327      C1344   1.286       .  A
O1328     Zr1336   2.413       .  S
O1328      C1343   1.281       .  A
O1329     Zr1334   2.397       .  S
O1329     Zr1336   2.376       .  S
O1330     Zr1335   2.391       .  S
O1330     Zr1336   2.388       .  S
O1330      H1365   0.965       .  S
O1331     Zr1334   2.396       .  S
O1331     Zr1351   2.395       .  S
O1331      H1368   0.965       .  S
O1332     Zr1335   2.382       .  S
O1332     Zr1351   2.378       .  S
Zr1333     O1358   2.441       .  S
Zr1333     O1352   2.450       .  S
Zr1333     O1360   2.462       .  S
Zr1333     O1348   2.438       .  S
Zr1333     O1339   2.392       .  S
Zr1333     O1340   2.416       .  S
Zr1333     O1341   2.378       .  S
Zr1333     O1342   2.388       .  S
Zr1334     O1353   2.438       .  S
Zr1334     O1346   2.435       .  S
Zr1334     O1347   2.417       .  S
Zr1334     O1340   2.399       .  S
Zr1334     O1341   2.387       .  S
Zr1335     O1337   2.438       .  S
Zr1335     O1359   2.437       .  S
Zr1335     O1361   2.417       .  S
Zr1335     O1339   2.383       .  S
Zr1335     O1342   2.394       .  S
Zr1336     O1362   2.435       .  S
Zr1336     O1363   2.435       .  S
Zr1336     O1338   2.438       .  S
Zr1336     O1339   2.382       .  S
Zr1336     O1340   2.400       .  S
O1337      H1374   0.990       .  S
O1338      H1369   0.990       .  S
O1338      H1383   0.990       .  S
O1340      H1366   0.965       .  S
O1341     Zr1351   2.372       .  S
O1342     Zr1351   2.387       .  S
O1342      H1367   0.966       .  S
C1343      C2425   1.492       .  S
C1344      C2553   1.477       .  S
C1345      C2401   1.483       .  S
O1346      H1382   0.990       .  S
O1347      C1349   1.282       .  A
O1348      C1349   1.285       .  A
C1349      C2457   1.482       .  S
O1350     Zr1351   2.438       .  S
O1350      H1379   0.990       .  S
Zr1351     O1354   2.436       .  S
Zr1351     O1355   2.438       .  S
Zr1351     O1356   2.402       .  S
O1352      C1357   1.287       .  A
O1353      H1370   0.990       .  S
O1353      H1385   0.990       .  S
O1354      H1371   0.990       .  S
O1355      H1375   0.990       .  S
O1355      H1384   0.990       .  S
O1356      C1357   1.279       .  A
C1357      C2441   1.485       .  S
O1358      H1377   0.990       .  S
O1358      H1381   0.990       .  S
O1359      H1373   0.990       .  S
O1359      H1380   0.990       .  S
O1360      C1364   1.289       .  A
O1361      C1364   1.282       .  A
O1362      H1372   0.990       .  S
O1363      H1376   0.990       .  S
C1364      C3409   1.470       .  S
Zr1387     O1388   2.443       .  S
Zr1387     O1389   2.455       .  S
Zr1387     O1390   2.450       .  S
Zr1387     O1393   2.441       .  S
Zr1387     O1395   2.384       .  S
Zr1387     O1396   2.389       .  S
Zr1387     O1397   2.418       .  S
Zr1387     O1398   2.397       .  S
O1388      H1444   0.990       .  S
O1388      H1452   0.991       .  S
O1389      C1409   1.287       .  A
O1390      C1411   1.286       .  A
O1391     Zr1401   2.437       .  S
O1391      C1410   1.287       .  A
O1392     Zr1400   2.436       .  S
O1392      C1411   1.284       .  A
O1393      C1410   1.286       .  A
O1394     Zr1402   2.406       .  S
O1394      C1409   1.279       .  A
O1395     Zr1400   2.397       .  S
O1395     Zr1402   2.379       .  S
O1396     Zr1401   2.386       .  S
O1396     Zr1402   2.387       .  S
O1396      H1431   0.965       .  S
O1397     Zr1400   2.407       .  S
O1397     Zr1417   2.390       .  S
O1397      H1434   0.964       .  S
O1398     Zr1401   2.386       .  S
O1398     Zr1417   2.379       .  S
Zr1399     O1424   2.443       .  S
Zr1399     O1418   2.461       .  S
Zr1399     O1426   2.476       .  S
Zr1399     O1414   2.428       .  S
Zr1399     O1405   2.396       .  S
Zr1399     O1406   2.423       .  S
Zr1399     O1407   2.381       .  S
Zr1399     O1408   2.383       .  S
Zr1400     O1419   2.437       .  S
Zr1400     O1412   2.436       .  S
Zr1400     O1413   2.445       .  S
Zr1400     O1406   2.396       .  S
Zr1400     O1407   2.399       .  S
Zr1401     O1403   2.436       .  S
Zr1401     O1425   2.438       .  S
Zr1401     O1427   2.433       .  S
Zr1401     O1405   2.387       .  S
Zr1401     O1408   2.404       .  S
Zr1402     O1428   2.437       .  S
Zr1402     O1429   2.437       .  S
Zr1402     O1404   2.439       .  S
Zr1402     O1405   2.388       .  S
Zr1402     O1406   2.390       .  S
O1403      H1440   0.990       .  S
O1404      H1435   0.990       .  S
O1404      H1449   0.990       .  S
O1406      H1432   0.965       .  S
O1407     Zr1417   2.377       .  S
O1408     Zr1417   2.388       .  S
O1408      H1433   0.965       .  S
C1409      C2433   1.484       .  S
C1410      C2505   1.483       .  S
C1411      C2369   1.478       .  S
O1412      H1448   0.990       .  S
O1413      C1415   1.287       .  A
O1414      C1415   1.285       .  A
C1415      C2385   1.486       .  S
O1416     Zr1417   2.437       .  S
O1416      H1445   0.990       .  S
Zr1417     O1420   2.434       .  S
Zr1417     O1421   2.437       .  S
Zr1417     O1422   2.401       .  S
O1418      C1423   1.289       .  A
O1419      H1436   0.990       .  S
O1419      H1451   0.990       .  S
O1420      H1437   0.990       .  S
O1421      H1441   0.990       .  S
O1421      H1450   0.990       .  S
O1422      C1423   1.278       .  A
C1423      C2417   1.491       .  S
O1424      H1443   0.990       .  S
O1424      H1447   0.990       .  S
O1425      H1439   0.990       .  S
O1425      H1446   0.990       .  S
O1426      C1430   1.291       .  A
O1427      C1430   1.285       .  A
O1428      H1438   0.990       .  S
O1429      H1442   0.990       .  S
C1430      C3369   1.492       .  S
Zr1453     O1454   2.442       .  S
Zr1453     O1455   2.452       .  S
Zr1453     O1456   2.466       .  S
Zr1453     O1459   2.455       .  S
Zr1453     O1461   2.387       .  S
Zr1453     O1462   2.388       .  S
Zr1453     O1463   2.409       .  S
Zr1453     O1464   2.397       .  S
O1454      H1510   0.990       .  S
O1454      H1518   0.991       .  S
O1455      C1475   1.287       .  A
O1456      C1477   1.288       .  A
O1457     Zr1467   2.419       .  S
O1457      C1476   1.284       .  A
O1458     Zr1466   2.410       .  S
O1458      C1477   1.281       .  A
O1459      C1476   1.289       .  A
O1460     Zr1468   2.409       .  S
O1460      C1475   1.279       .  A
O1461     Zr1466   2.401       .  S
O1461     Zr1468   2.384       .  S
O1462     Zr1467   2.392       .  S
O1462     Zr1468   2.384       .  S
O1462      H1497   0.964       .  S
O1463     Zr1466   2.401       .  S
O1463     Zr1483   2.392       .  S
O1463      H1500   0.964       .  S
O1464     Zr1467   2.387       .  S
O1464     Zr1483   2.377       .  S
Zr1465     O1490   2.443       .  S
Zr1465     O1484   2.439       .  S
Zr1465     O1492   2.439       .  S
Zr1465     O1480   2.429       .  S
Zr1465     O1471   2.391       .  S
Zr1465     O1472   2.414       .  S
Zr1465     O1473   2.375       .  S
Zr1465     O1474   2.383       .  S
Zr1466     O1485   2.436       .  S
Zr1466     O1478   2.435       .  S
Zr1466     O1479   2.430       .  S
Zr1466     O1472   2.394       .  S
Zr1466     O1473   2.391       .  S
Zr1467     O1469   2.436       .  S
Zr1467     O1491   2.439       .  S
Zr1467     O1493   2.423       .  S
Zr1467     O1471   2.378       .  S
Zr1467     O1474   2.394       .  S
Zr1468     O1494   2.437       .  S
Zr1468     O1495   2.435       .  S
Zr1468     O1470   2.436       .  S
Zr1468     O1471   2.374       .  S
Zr1468     O1472   2.394       .  S
O1469      H1506   0.990       .  S
O1470      H1501   0.990       .  S
O1470      H1515   0.990       .  S
O1472      H1498   0.965       .  S
O1473     Zr1483   2.381       .  S
O1474     Zr1483   2.381       .  S
O1474      H1499   0.965       .  S
C1475      C2337   1.486       .  S
C1476      C2713   1.484       .  S
C1477      C3225   1.478       .  S
O1478      H1514   0.990       .  S
O1479      C1481   1.283       .  A
O1480      C1481   1.282       .  A
C1481      C2449   1.475       .  S
O1482     Zr1483   2.436       .  S
O1482      H1511   0.990       .  S
Zr1483     O1486   2.439       .  S
Zr1483     O1487   2.439       .  S
Zr1483     O1488   2.394       .  S
O1484      C1489   1.284       .  A
O1485      H1502   0.990       .  S
O1485      H1517   0.990       .  S
O1486      H1503   0.990       .  S
O1487      H1507   0.990       .  S
O1487      H1516   0.990       .  S
O1488      C1489   1.277       .  A
C1489      C2361   1.478       .  S
O1490      H1509   0.991       .  S
O1490      H1513   0.990       .  S
O1491      H1505   0.990       .  S
O1491      H1512   0.990       .  S
O1492      C1496   1.285       .  A
O1493      C1496   1.284       .  A
O1494      H1504   0.990       .  S
O1495      H1508   0.991       .  S
C1496      C3553   1.469       .  S
Zr1519     O1520   2.443       .  S
Zr1519     O1521   2.440       .  S
Zr1519     O1522   2.456       .  S
Zr1519     O1525   2.449       .  S
Zr1519     O1527   2.387       .  S
Zr1519     O1528   2.386       .  S
Zr1519     O1529   2.412   1_554  S
Zr1519     O1530   2.401   1_554  S
O1520      H1576   0.990       .  S
O1520      H1584   0.990       .  S
O1521      C1541   1.284       .  A
O1522      C1543   1.286       .  A
O1523     Zr1533   2.433   1_554  S
O1523      C1542   1.285       .  A
O1524     Zr1532   2.403       .  S
O1524      C1543   1.278   1_556  A
O1525      C1542   1.287       .  A
O1526     Zr1534   2.402       .  S
O1526      C1541   1.279       .  A
O1527     Zr1532   2.394   1_554  S
O1527     Zr1534   2.375       .  S
O1528     Zr1533   2.383   1_554  S
O1528     Zr1534   2.387       .  S
O1528      H1563   0.966       .  S
O1529     Zr1532   2.403       .  S
O1529     Zr1549   2.397       .  S
O1529      H1566   0.965       .  S
O1530     Zr1533   2.386       .  S
O1530     Zr1549   2.390       .  S
Zr1531     O1556   2.440       .  S
Zr1531     O1550   2.442       .  S
Zr1531     O1558   2.465       .  S
Zr1531     O1546   2.447       .  S
Zr1531     O1537   2.392       .  S
Zr1531     O1538   2.412       .  S
Zr1531     O1539   2.375       .  S
Zr1531     O1540   2.388       .  S
Zr1532     O1551   2.440       .  S
Zr1532     O1544   2.434       .  S
Zr1532     O1545   2.416       .  S
Zr1532     O1538   2.394       .  S
Zr1532     O1539   2.385       .  S
Zr1533     O1535   2.435       .  S
Zr1533     O1557   2.439   1_556  S
Zr1533     O1559   2.413       .  S
Zr1533     O1537   2.385       .  S
Zr1533     O1540   2.398       .  S
Zr1534     O1560   2.434       .  S
Zr1534     O1561   2.435       .  S
Zr1534     O1536   2.438       .  S
Zr1534     O1537   2.379   1_554  S
Zr1534     O1538   2.397   1_554  S
O1535      H1572   0.990       .  S
O1536      H1567   0.990       .  S
O1536      H1581   0.990       .  S
O1538      H1564   0.965       .  S
O1539     Zr1549   2.370       .  S
O1540     Zr1549   2.386       .  S
O1540      H1565   0.965       .  S
C1541      C2353   1.475       .  S
C1542      C2769   1.485       .  S
C1543      C3289   1.473       .  S
O1544      H1580   0.990       .  S
O1545      C1547   1.281       .  A
O1546      C1547   1.287       .  A
C1547      C2393   1.484       .  S
O1548     Zr1549   2.437       .  S
O1548      H1577   0.990       .  S
Zr1549     O1552   2.434       .  S
Zr1549     O1553   2.438       .  S
Zr1549     O1554   2.415       .  S
O1550      C1555   1.285       .  A
O1551      H1568   0.990       .  S
O1551      H1583   0.990       .  S
O1552      H1569   0.990       .  S
O1553      H1573   0.990       .  S
O1553      H1582   0.990       .  S
O1554      C1555   1.282       .  A
C1555      C2345   1.487       .  S
O1556      H1575   0.990       .  S
O1556      H1579   0.990       .  S
O1557      H1571   0.990       .  S
O1557      H1578   0.990       .  S
O1558      C1562   1.290       .  A
O1559      C1562   1.281       .  A
O1560      H1570   0.990       .  S
O1561      H1574   0.990   1_554  S
C1562      C3497   1.475       .  S
Zr1585     O1586   2.443       .  S
Zr1585     O1587   2.446       .  S
Zr1585     O1588   2.455       .  S
Zr1585     O1591   2.444       .  S
Zr1585     O1593   2.387       .  S
Zr1585     O1594   2.388       .  S
Zr1585     O1595   2.413       .  S
Zr1585     O1596   2.400       .  S
O1586      H1642   0.990       .  S
O1586      H1650   0.991       .  S
O1587      C1607   1.285       .  A
O1588      C1609   1.286       .  A
O1589     Zr1599   2.411       .  S
O1589      C1608   1.281       .  A
O1590     Zr1598   2.425       .  S
O1590      C1609   1.283       .  A
O1591      C1608   1.287       .  A
O1592     Zr1600   2.402       .  S
O1592      C1607   1.278       .  A
O1593     Zr1598   2.403       .  S
O1593     Zr1600   2.379       .  S
O1594     Zr1599   2.392       .  S
O1594     Zr1600   2.379       .  S
O1594      H1629   0.966       .  S
O1595     Zr1598   2.408       .  S
O1595     Zr1615   2.395       .  S
O1595      H1632   0.964       .  S
O1596     Zr1599   2.387       .  S
O1596     Zr1615   2.379       .  S
Zr1597     O1622   2.442       .  S
Zr1597     O1616   2.446       .  S
Zr1597     O1624   2.451       .  S
Zr1597     O1612   2.415       .  S
Zr1597     O1603   2.392       .  S
Zr1597     O1604   2.417       .  S
Zr1597     O1605   2.379       .  S
Zr1597     O1606   2.383       .  S
Zr1598     O1617   2.437       .  S
Zr1598     O1610   2.437       .  S
Zr1598     O1611   2.443       .  S
Zr1598     O1604   2.401       .  S
Zr1598     O1605   2.392       .  S
Zr1599     O1601   2.437       .  S
Zr1599     O1623   2.439       .  S
Zr1599     O1625   2.417       .  S
Zr1599     O1603   2.379       .  S
Zr1599     O1606   2.396       .  S
Zr1600     O1626   2.436       .  S
Zr1600     O1627   2.434       .  S
Zr1600     O1602   2.436       .  S
Zr1600     O1603   2.383       .  S
Zr1600     O1604   2.392       .  S
O1601      H1638   0.990       .  S
O1602      H1633   0.990       .  S
O1602      H1647   0.989       .  S
O1604      H1630   0.965       .  S
O1605     Zr1615   2.374       .  S
O1606     Zr1615   2.390       .  S
O1606      H1631   0.966       .  S
C1607      C2289   1.483       .  S
C1608      C3233   1.478       .  S
C1609      C2721   1.482       .  S
O1610      H1646   0.990       .  S
O1611      C1613   1.286       .  A
O1612      C1613   1.281       .  A
C1613      C2329   1.479       .  S
O1614     Zr1615   2.435       .  S
O1614      H1643   0.990       .  S
Zr1615     O1618   2.436       .  S
Zr1615     O1619   2.439       .  S
Zr1615     O1620   2.404       .  S
O1616      C1621   1.286       .  A
O1617      H1634   0.990       .  S
O1617      H1649   0.990       .  S
O1618      H1635   0.990       .  S
O1619      H1639   0.990       .  S
O1619      H1648   0.990       .  S
O1620      C1621   1.279       .  A
C1621      C2305   1.484       .  S
O1622      H1641   0.991       .  S
O1622      H1645   0.990       .  S
O1623      H1637   0.990       .  S
O1623      H1644   0.990       .  S
O1624      C1628   1.286       .  A
O1625      C1628   1.281       .  A
O1626      H1636   0.990       .  S
O1627      H1640   0.990       .  S
C1628      C3025   1.468       .  S
Zr1651     O1652   2.443   1_556  S
Zr1651     O1653   2.456   1_556  S
Zr1651     O1654   2.441       .  S
Zr1651     O1657   2.454   1_556  S
Zr1651     O1659   2.389       .  S
Zr1651     O1660   2.378       .  S
Zr1651     O1661   2.421       .  S
Zr1651     O1662   2.401       .  S
O1652      H1708   0.990       .  S
O1652      H1716   0.990   1_554  S
O1653      C1673   1.288       .  A
O1654      C1675   1.285       .  A
O1655     Zr1665   2.415       .  S
O1655      C1674   1.281       .  A
O1656     Zr1664   2.432       .  S
O1656      C1675   1.285       .  A
O1657      C1674   1.288   1_554  A
O1658     Zr1666   2.398   1_554  S
O1658      C1673   1.278       .  A
O1659     Zr1664   2.401       .  S
O1659     Zr1666   2.382       .  S
O1660     Zr1665   2.387       .  S
O1660     Zr1666   2.386       .  S
O1660      H1695   0.966   1_556  S
O1661     Zr1664   2.411       .  S
O1661     Zr1681   2.393       .  S
O1661      H1698   0.964       .  S
O1662     Zr1665   2.382       .  S
O1662     Zr1681   2.391       .  S
Zr1663     O1688   2.441       .  S
Zr1663     O1682   2.432       .  S
Zr1663     O1690   2.460       .  S
Zr1663     O1678   2.434       .  S
Zr1663     O1669   2.387       .  S
Zr1663     O1670   2.411       .  S
Zr1663     O1671   2.382       .  S
Zr1663     O1672   2.387       .  S
Zr1664     O1683   2.440       .  S
Zr1664     O1676   2.434       .  S
Zr1664     O1677   2.450       .  S
Zr1664     O1670   2.400       .  S
Zr1664     O1671   2.389       .  S
Zr1665     O1667   2.436       .  S
Zr1665     O1689   2.440       .  S
Zr1665     O1691   2.396       .  S
Zr1665     O1669   2.385       .  S
Zr1665     O1672   2.395       .  S
Zr1666     O1692   2.437   1_556  S
Zr1666     O1693   2.435       .  S
Zr1666     O1668   2.437   1_556  S
Zr1666     O1669   2.377       .  S
Zr1666     O1670   2.390       .  S
O1667      H1704   0.990       .  S
O1668      H1699   0.990       .  S
O1668      H1713   0.990       .  S
O1670      H1696   0.965       .  S
O1671     Zr1681   2.377       .  S
O1672     Zr1681   2.386       .  S
O1672      H1697   0.965       .  S
C1673      C2313   1.481       .  S
C1674      C3305   1.483   1_556  S
C1675      C2793   1.483       .  S
O1676      H1712   0.990       .  S
O1677      C1679   1.288       .  A
O1678      C1679   1.284       .  A
C1679      C2273   1.491       .  S
O1680     Zr1681   2.440       .  S
O1680      H1709   0.990       .  S
Zr1681     O1684   2.437       .  S
Zr1681     O1685   2.441       .  S
Zr1681     O1686   2.409       .  S
O1682      C1687   1.284       .  A
O1683      H1700   0.990       .  S
O1683      H1715   0.990       .  S
O1684      H1701   0.989       .  S
O1685      H1705   0.989       .  S
O1685      H1714   0.990       .  S
O1686      C1687   1.280       .  A
C1687      C2297   1.481       .  S
O1688      H1707   0.991       .  S
O1688      H1711   0.990       .  S
O1689      H1703   0.990       .  S
O1689      H1710   0.990   1_556  S
O1690      C1694   1.288       .  A
O1691      C1694   1.278       .  A
O1692      H1702   0.990       .  S
O1693      H1706   0.990       .  S
C1694      C2985   1.466       .  S
Zr1717     O1718   2.441       .  S
Zr1717     O1719   2.450       .  S
Zr1717     O1720   2.453       .  S
Zr1717     O1723   2.448       .  S
Zr1717     O1725   2.390       .  S
Zr1717     O1726   2.386       .  S
Zr1717     O1727   2.413       .  S
Zr1717     O1728   2.396       .  S
O1718      H1774   0.990       .  S
O1718      H1782   0.991       .  S
O1719      C1739   1.286       .  A
O1720      C1741   1.286       .  A
O1721     Zr1731   2.417       .  S
O1721      C1740   1.283       .  A
O1722     Zr1730   2.418       .  S
O1722      C1741   1.282       .  A
O1723      C1740   1.287       .  A
O1724     Zr1732   2.408       .  S
O1724      C1739   1.280       .  A
O1725     Zr1730   2.399       .  S
O1725     Zr1732   2.379       .  S
O1726     Zr1731   2.385       .  S
O1726     Zr1732   2.385       .  S
O1726      H1761   0.966       .  S
O1727     Zr1730   2.396       .  S
O1727     Zr1747   2.394       .  S
O1727      H1764   0.965       .  S
O1728     Zr1731   2.380       .  S
O1728     Zr1747   2.379       .  S
Zr1729     O1754   2.441       .  S
Zr1729     O1748   2.447       .  S
Zr1729     O1756   2.470       .  S
Zr1729     O1744   2.436       .  S
Zr1729     O1735   2.390       .  S
Zr1729     O1736   2.415       .  S
Zr1729     O1737   2.381       .  S
Zr1729     O1738   2.389       .  S
Zr1730     O1749   2.437       .  S
Zr1730     O1742   2.436       .  S
Zr1730     O1743   2.426       .  S
Zr1730     O1736   2.402       .  S
Zr1730     O1737   2.386       .  S
Zr1731     O1733   2.436       .  S
Zr1731     O1755   2.439       .  S
Zr1731     O1757   2.407       .  S
Zr1731     O1735   2.385       .  S
Zr1731     O1738   2.398       .  S
Zr1732     O1758   2.437       .  S
Zr1732     O1759   2.436       .  S
Zr1732     O1734   2.438       .  S
Zr1732     O1735   2.381       .  S
Zr1732     O1736   2.395       .  S
O1733      H1770   0.990       .  S
O1734      H1765   0.990       .  S
O1734      H1779   0.990       .  S
O1736      H1762   0.965       .  S
O1737     Zr1747   2.370       .  S
O1738     Zr1747   2.389       .  S
O1738      H1763   0.967       .  S
C1739      C2241   1.485       .  S
C1740      C2233   1.477       .  S
C1741      C2569   1.477       .  S
O1742      H1778   0.990       .  S
O1743      C1745   1.283       .  A
O1744      C1745   1.285       .  A
C1745      C2321   1.484       .  S
O1746     Zr1747   2.434       .  S
O1746      H1775   0.990       .  S
Zr1747     O1750   2.439       .  S
Zr1747     O1751   2.438       .  S
Zr1747     O1752   2.403       .  S
O1748      C1753   1.287       .  A
O1749      H1766   0.990       .  S
O1749      H1781   0.990       .  S
O1750      H1767   0.990       .  S
O1751      H1771   0.990       .  S
O1751      H1780   0.990       .  S
O1752      C1753   1.279       .  A
C1753      C2257   1.485       .  S
O1754      H1773   0.990       .  S
O1754      H1777   0.990       .  S
O1755      H1769   0.990       .  S
O1755      H1776   0.990       .  S
O1756      C1760   1.291       .  A
O1757      C1760   1.280       .  A
O1758      H1768   0.990       .  S
O1759      H1772   0.990       .  S
C1760      C2897   1.477       .  S
Zr1783     O1784   2.443       .  S
Zr1783     O1785   2.457       .  S
Zr1783     O1786   2.454       .  S
Zr1783     O1789   2.447       .  S
Zr1783     O1791   2.389       .  S
Zr1783     O1792   2.384       .  S
Zr1783     O1793   2.414       .  S
Zr1783     O1794   2.399       .  S
O1784      H1840   0.990       .  S
O1784      H1848   0.991       .  S
O1785      C1805   1.288       .  A
O1786      C1807   1.287       .  A
O1787     Zr1797   2.424       .  S
O1787      C1806   1.282       .  A
O1788     Zr1796   2.432       .  S
O1788      C1807   1.285       .  A
O1789      C1806   1.287       .  A
O1790     Zr1798   2.401       .  S
O1790      C1805   1.278       .  A
O1791     Zr1796   2.406       .  S
O1791     Zr1798   2.375       .  S
O1792     Zr1797   2.386       .  S
O1792     Zr1798   2.379       .  S
O1792      H1827   0.964       .  S
O1793     Zr1796   2.409       .  S
O1793     Zr1813   2.388       .  S
O1793      H1830   0.964       .  S
O1794     Zr1797   2.390       .  S
O1794     Zr1813   2.383       .  S
Zr1795     O1820   2.443       .  S
Zr1795     O1814   2.450       .  S
Zr1795     O1822   2.459       .  S
Zr1795     O1810   2.422       .  S
Zr1795     O1801   2.395       .  S
Zr1795     O1802   2.418       .  S
Zr1795     O1803   2.377       .  S
Zr1795     O1804   2.385       .  S
Zr1796     O1815   2.434       .  S
Zr1796     O1808   2.435       .  S
Zr1796     O1809   2.459       .  S
Zr1796     O1802   2.397       .  S
Zr1796     O1803   2.392       .  S
Zr1797     O1799   2.436       .  S
Zr1797     O1821   2.440       .  S
Zr1797     O1823   2.422       .  S
Zr1797     O1801   2.384       .  S
Zr1797     O1804   2.402       .  S
Zr1798     O1824   2.436       .  S
Zr1798     O1825   2.436       .  S
Zr1798     O1800   2.437       .  S
Zr1798     O1801   2.386       .  S
Zr1798     O1802   2.392       .  S
O1799      H1836   0.990       .  S
O1800      H1831   0.990       .  S
O1800      H1845   0.990       .  S
O1802      H1828   0.966       .  S
O1803     Zr1813   2.380       .  S
O1804     Zr1813   2.389       .  S
O1804      H1829   0.967       .  S
C1805      C2265   1.485       .  S
C1806      C2209   1.475       .  S
C1807      C2513   1.481       .  S
O1808      H1844   0.990       .  S
O1809      C1811   1.289       .  A
O1810      C1811   1.283       .  A
C1811      C2281   1.490       .  S
O1812     Zr1813   2.438       .  S
O1812      H1841   0.990       .  S
Zr1813     O1816   2.439       .  S
Zr1813     O1817   2.437       .  S
Zr1813     O1818   2.402       .  S
O1814      C1819   1.286       .  A
O1815      H1832   0.990       .  S
O1815      H1847   0.990       .  S
O1816      H1833   0.990       .  S
O1817      H1837   0.990       .  S
O1817      H1846   0.990       .  S
O1818      C1819   1.278       .  A
C1819      C2249   1.486       .  S
O1820      H1839   0.990       .  S
O1820      H1843   0.990       .  S
O1821      H1835   0.990       .  S
O1821      H1842   0.990       .  S
O1822      C1826   1.287       .  A
O1823      C1826   1.283       .  A
O1824      H1834   0.990       .  S
O1825      H1838   0.990       .  S
C1826      C2849   1.478       .  S
Zr1849     O1850   2.441   1_554  S
Zr1849     O1851   2.455   1_554  S
Zr1849     O1852   2.477       .  S
Zr1849     O1855   2.430   1_554  S
Zr1849     O1857   2.386       .  S
Zr1849     O1858   2.388       .  S
Zr1849     O1859   2.406       .  S
Zr1849     O1860   2.413       .  S
O1850      H1906   0.990       .  S
O1850      H1914   0.990   1_556  S
O1851      C1871   1.287       .  A
O1852      C1873   1.291       .  A
O1853     Zr1863   2.444       .  S
O1853      C1872   1.287   1_554  A
O1854     Zr1862   2.405       .  S
O1854      C1873   1.279       .  A
O1855      C1872   1.285       .  A
O1856     Zr1864   2.410   1_556  S
O1856      C1871   1.280       .  A
O1857     Zr1862   2.403       .  S
O1857     Zr1864   2.386       .  S
O1858     Zr1863   2.389       .  S
O1858     Zr1864   2.366       .  S
O1858      H1893   0.964   1_554  S
O1859     Zr1862   2.402       .  S
O1859     Zr1879   2.377       .  S
O1859      H1896   0.965       .  S
O1860     Zr1863   2.391       .  S
O1860     Zr1879   2.391       .  S
Zr1861     O1886   2.441       .  S
Zr1861     O1880   2.465       .  S
Zr1861     O1888   2.434       .  S
Zr1861     O1876   2.463       .  S
Zr1861     O1867   2.412       .  S
Zr1861     O1868   2.413       .  S
Zr1861     O1869   2.372       .  S
Zr1861     O1870   2.397       .  S
Zr1862     O1881   2.437       .  S
Zr1862     O1874   2.435       .  S
Zr1862     O1875   2.429       .  S
Zr1862     O1868   2.392       .  S
Zr1862     O1869   2.393       .  S
Zr1863     O1865   2.436       .  S
Zr1863     O1887   2.437       .  S
Zr1863     O1889   2.421       .  S
Zr1863     O1867   2.389       .  S
Zr1863     O1870   2.399       .  S
Zr1864     O1890   2.436   1_554  S
Zr1864     O1891   2.436       .  S
Zr1864     O1866   2.437   1_554  S
Zr1864     O1867   2.388       .  S
Zr1864     O1868   2.386       .  S
O1865      H1902   0.990       .  S
O1866      H1897   0.990       .  S
O1866      H1911   0.990   1_556  S
O1868      H1894   0.962       .  S
O1869     Zr1879   2.393       .  S
O1870     Zr1879   2.373       .  S
O1870      H1895   0.966       .  S
C1871      C2169   1.478       .  S
C1872      C2201   1.490       .  S
C1873      C3273   1.468       .  S
O1874      H1910   0.990       .  S
O1875      C1877   1.283       .  A
O1876      C1877   1.289       .  A
C1877      C2409   1.489       .  S
O1878     Zr1879   2.438       .  S
O1878      H1907   0.990       .  S
Zr1879     O1882   2.436       .  S
Zr1879     O1883   2.438       .  S
Zr1879     O1884   2.402       .  S
O1880      C1885   1.289       .  A
O1881      H1898   0.990       .  S
O1881      H1913   0.990       .  S
O1882      H1899   0.990       .  S
O1883      H1903   0.990       .  S
O1883      H1912   0.990       .  S
O1884      C1885   1.279       .  A
C1885      C2177   1.486       .  S
O1886      H1905   0.991       .  S
O1886      H1909   0.990       .  S
O1887      H1901   0.990       .  S
O1887      H1908   0.990   1_554  S
O1888      C1892   1.284       .  A
O1889      C1892   1.284       .  A
O1890      H1900   0.990       .  S
O1891      H1904   0.990       .  S
C1892      C2225   1.479       .  S
Zr1915     O1916   2.442       .  S
Zr1915     O1917   2.465       .  S
Zr1915     O1918   2.480       .  S
Zr1915     O1921   2.432       .  S
Zr1915     O1923   2.384       .  S
Zr1915     O1924   2.389       .  S
Zr1915     O1925   2.412       .  S
Zr1915     O1926   2.412       .  S
O1916      H1972   0.990       .  S
O1916      H1980   0.991       .  S
O1917      C1937   1.289       .  A
O1918      C1939   1.291       .  A
O1919     Zr1929   2.455       .  S
O1919      C1938   1.289       .  A
O1920     Zr1928   2.391       .  S
O1920      C1939   1.278       .  A
O1921      C1938   1.285       .  A
O1922     Zr1930   2.416       .  S
O1922      C1937   1.281       .  A
O1923     Zr1928   2.400       .  S
O1923     Zr1930   2.387       .  S
O1924     Zr1929   2.390       .  S
O1924     Zr1930   2.377       .  S
O1924      H1959   0.964       .  S
O1925     Zr1928   2.397       .  S
O1925     Zr1945   2.384       .  S
O1925      H1962   0.963       .  S
O1926     Zr1929   2.391       .  S
O1926     Zr1945   2.389       .  S
Zr1927     O1952   2.440       .  S
Zr1927     O1946   2.455       .  S
Zr1927     O1954   2.434       .  S
Zr1927     O1942   2.468       .  S
Zr1927     O1933   2.409       .  S
Zr1927     O1934   2.408       .  S
Zr1927     O1935   2.373       .  S
Zr1927     O1936   2.398       .  S
Zr1928     O1947   2.437       .  S
Zr1928     O1940   2.435       .  S
Zr1928     O1941   2.408       .  S
Zr1928     O1934   2.386       .  S
Zr1928     O1935   2.390       .  S
Zr1929     O1931   2.434       .  S
Zr1929     O1953   2.436       .  S
Zr1929     O1955   2.435       .  S
Zr1929     O1933   2.392       .  S
Zr1929     O1936   2.405       .  S
Zr1930     O1956   2.435       .  S
Zr1930     O1957   2.436       .  S
Zr1930     O1932   2.436       .  S
Zr1930     O1933   2.388       .  S
Zr1930     O1934   2.384       .  S
O1931      H1968   0.990       .  S
O1932      H1963   0.990       .  S
O1932      H1977   0.990       .  S
O1934      H1960   0.964       .  S
O1935     Zr1945   2.387       .  S
O1936     Zr1945   2.376       .  S
O1936      H1961   0.965       .  S
C1937      C2185   1.488       .  S
C1938      C2153   1.492       .  S
C1939      C3209   1.486       .  S
O1940      H1976   0.990       .  S
O1941      C1943   1.280       .  A
O1942      C1943   1.290       .  A
C1943      C2377   1.487       .  S
O1944     Zr1945   2.435       .  S
O1944      H1973   0.990       .  S
Zr1945     O1948   2.436       .  S
Zr1945     O1949   2.438       .  S
Zr1945     O1950   2.411       .  S
O1946      C1951   1.287       .  A
O1947      H1964   0.990       .  S
O1947      H1979   0.990       .  S
O1948      H1965   0.990       .  S
O1949      H1969   0.990       .  S
O1949      H1978   0.990       .  S
O1950      C1951   1.279       .  A
C1951      C2161   1.481       .  S
O1952      H1971   0.991       .  S
O1952      H1975   0.990       .  S
O1953      H1967   0.990       .  S
O1953      H1974   0.990       .  S
O1954      C1958   1.285       .  A
O1955      C1958   1.286       .  A
O1956      H1966   0.990       .  S
O1957      H1970   0.990       .  S
C1958      C2217   1.485       .  S
Zr1981     O1982   2.442       .  S
Zr1981     O1983   2.439       .  S
Zr1981     O1984   2.470       .  S
Zr1981     O1987   2.442       .  S
Zr1981     O1989   2.387       .  S
Zr1981     O1990   2.390       .  S
Zr1981     O1991   2.403       .  S
Zr1981     O1992   2.411       .  S
O1982      H2038   0.990       .  S
O1982      H2046   0.990       .  S
O1983      C2003   1.284       .  A
O1984      C2005   1.289       .  A
O1985     Zr1995   2.443       .  S
O1985      C2004   1.287       .  A
O1986     Zr1994   2.433       .  S
O1986      C2005   1.285       .  A
O1987      C2004   1.287       .  A
O1988     Zr1996   2.396       .  S
O1988      C2003   1.277       .  A
O1989     Zr1994   2.401       .  S
O1989     Zr1996   2.391       .  S
O1990     Zr1995   2.393       .  S
O1990     Zr1996   2.370       .  S
O1990      H2025   0.966       .  S
O1991     Zr1994   2.406       .  S
O1991     Zr2011   2.366       .  S
O1991      H2028   0.962       .  S
O1992     Zr1995   2.386       .  S
O1992     Zr2011   2.391       .  S
Zr1993     O2018   2.443       .  S
Zr1993     O2012   2.449       .  S
Zr1993     O2020   2.442       .  S
Zr1993     O2008   2.455       .  S
Zr1993     O1999   2.403       .  S
Zr1993     O2000   2.413       .  S
Zr1993     O2001   2.376       .  S
Zr1993     O2002   2.394       .  S
Zr1994     O2013   2.437       .  S
Zr1994     O2006   2.435       .  S
Zr1994     O2007   2.449       .  S
Zr1994     O2000   2.402       .  S
Zr1994     O2001   2.395       .  S
Zr1995     O1997   2.434       .  S
Zr1995     O2019   2.438       .  S
Zr1995     O2021   2.423       .  S
Zr1995     O1999   2.393       .  S
Zr1995     O2002   2.398       .  S
Zr1996     O2022   2.438       .  S
Zr1996     O2023   2.436       .  S
Zr1996     O1998   2.436       .  S
Zr1996     O1999   2.378       .  S
Zr1996     O2000   2.383       .  S
O1997      H2034   0.990       .  S
O1998      H2029   0.990       .  S
O1998      H2043   0.990       .  S
O2000      H2026   0.964       .  S
O2001     Zr2011   2.387       .  S
O2002     Zr2011   2.373       .  S
O2002      H2027   0.965       .  S
C2003      C2113   1.479       .  S
C2004      C2145   1.494       .  S
C2005      C3137   1.473       .  S
O2006      H2042   0.990       .  S
O2007      C2009   1.287       .  A
O2008      C2009   1.287       .  A
C2009      C3449   1.489       .  S
O2010     Zr2011   2.439       .  S
O2010      H2039   0.990       .  S
Zr2011     O2014   2.437       .  S
Zr2011     O2015   2.438       .  S
Zr2011     O2016   2.390       .  S
O2012      C2017   1.286       .  A
O2013      H2030   0.990       .  S
O2013      H2045   0.990       .  S
O2014      H2031   0.990       .  S
O2015      H2035   0.990       .  S
O2015      H2044   0.990       .  S
O2016      C2017   1.277       .  A
C2017      C2129   1.481       .  S
O2018      H2037   0.991       .  S
O2018      H2041   0.990       .  S
O2019      H2033   0.990       .  S
O2019      H2040   0.990       .  S
O2020      C2024   1.287       .  A
O2021      C2024   1.284       .  A
O2022      H2032   0.990       .  S
O2023      H2036   0.990       .  S
C2024      C2937   1.484       .  S
Zr2047     O2048   2.443       .  S
Zr2047     O2049   2.449       .  S
Zr2047     O2050   2.467       .  S
Zr2047     O2053   2.426       .  S
Zr2047     O2055   2.378       .  S
Zr2047     O2056   2.393       .  S
Zr2047     O2057   2.410       .  S
Zr2047     O2058   2.414       .  S
O2048      H2104   0.990       .  S
O2048      H2112   0.991       .  S
O2049      C2069   1.286       .  A
O2050      C2071   1.289       .  A
O2051     Zr2061   2.448       .  S
O2051      C2070   1.287       .  A
O2052     Zr2060   2.403       .  S
O2052      C2071   1.279       .  A
O2053      C2070   1.284       .  A
O2054     Zr2062   2.387       .  S
O2054      C2069   1.276       .  A
O2055     Zr2060   2.392       .  S
O2055     Zr2062   2.387       .  S
O2056     Zr2061   2.397       .  S
O2056     Zr2062   2.380       .  S
O2056      H2091   0.966       .  S
O2057     Zr2060   2.393       .  S
O2057     Zr2077   2.378       .  S
O2057      H2094   0.960       .  S
O2058     Zr2061   2.393       .  S
O2058     Zr2077   2.391       .  S
Zr2059     O2084   2.442       .  S
Zr2059     O2078   2.437       .  S
Zr2059     O2086   2.427       .  S
Zr2059     O2074   2.464       .  S
Zr2059     O2065   2.404       .  S
Zr2059     O2066   2.401       .  S
Zr2059     O2067   2.377       .  S
Zr2059     O2068   2.394       .  S
Zr2060     O2079   2.439       .  S
Zr2060     O2072   2.434       .  S
Zr2060     O2073   2.408       .  S
Zr2060     O2066   2.395       .  S
Zr2060     O2067   2.391       .  S
Zr2061     O2063   2.435       .  S
Zr2061     O2085   2.437       .  S
Zr2061     O2087   2.445       .  S
Zr2061     O2065   2.398       .  S
Zr2061     O2068   2.395       .  S
Zr2062     O2088   2.435       .  S
Zr2062     O2089   2.435       .  S
Zr2062     O2064   2.437       .  S
Zr2062     O2065   2.382       .  S
Zr2062     O2066   2.379       .  S
O2063      H2100   0.990       .  S
O2064      H2095   0.990       .  S
O2064      H2109   0.990       .  S
O2066      H2092   0.966       .  S
O2067     Zr2077   2.385       .  S
O2068     Zr2077   2.371       .  S
O2068      H2093   0.966       .  S
C2069      C2137   1.479       .  S
C2070      C2193   1.484       .  S
C2071      C3113   1.484       .  S
O2072      H2108   0.990       .  S
O2073      C2075   1.279       .  A
O2074      C2075   1.287       .  A
C2075      C3401   1.469       .  S
O2076     Zr2077   2.437       .  S
O2076      H2105   0.990       .  S
Zr2077     O2080   2.438       .  S
Zr2077     O2081   2.438       .  S
Zr2077     O2082   2.401       .  S
O2078      C2083   1.285       .  A
O2079      H2096   0.990       .  S
O2079      H2111   0.990       .  S
O2080      H2097   0.990       .  S
O2081      H2101   0.990       .  S
O2081      H2110   0.990       .  S
O2082      C2083   1.279       .  A
C2083      C2121   1.478       .  S
O2084      H2103   0.991       .  S
O2084      H2107   0.990       .  S
O2085      H2099   0.990       .  S
O2085      H2106   0.990       .  S
O2086      C2090   1.284       .  A
O2087      C2090   1.288       .  A
O2088      H2098   0.989       .  S
O2089      H2102   0.990       .  S
C2090      C2889   1.483       .  S
C2113      C2114   1.405       .  A
C2113      C2118   1.408       .  A
C2114      C2115   1.398       .  A
C2114      H2123   1.083       .  S
C2115      C2116   1.404       .  A
C2115      H2124   1.084       .  S
C2116      C2122   1.401       .  A
C2116      C2117   1.411       .  A
C2117      C2119   1.401       .  A
C2117      C2118   1.396       .  A
C2118      H2125   1.084       .  S
C2119      C2120   1.394       .  A
C2119      H2126   1.084       .  S
C2120      C2121   1.404       .  A
C2120      H2127   1.083       .  S
C2121      C2122   1.410       .  A
C2122      H2128   1.084       .  S
C2129      C2130   1.405       .  A
C2129      C2134   1.410       .  A
C2130      C2131   1.398       .  A
C2130      H2139   1.083       .  S
C2131      C2132   1.404       .  A
C2131      H2140   1.084       .  S
C2132      C2138   1.399       .  A
C2132      C2133   1.410       .  A
C2133      C2135   1.403       .  A
C2133      C2134   1.398       .  A
C2134      H2141   1.084       .  S
C2135      C2136   1.396       .  A
C2135      H2142   1.084       .  S
C2136      C2137   1.404   1_554  A
C2136      H2143   1.083   1_554  S
C2137      C2138   1.411   1_556  A
C2138      H2144   1.084       .  S
C2145      C2146   1.409       .  A
C2145      C2150   1.409       .  A
C2146      C2147   1.403       .  A
C2146      H2155   1.083       .  S
C2147      C2148   1.404       .  A
C2147      H2156   1.083       .  S
C2148      C2154   1.414       .  A
C2148      C2149   1.414       .  A
C2149      C2151   1.400       .  A
C2149      C2150   1.408       .  A
C2150      H2157   1.084       .  S
C2151      C2152   1.396       .  A
C2151      H2158   1.084       .  S
C2152      C2153   1.409       .  A
C2152      H2159   1.083       .  S
C2153      C2154   1.410       .  A
C2154      H2160   1.084       .  S
C2161      C2162   1.407       .  A
C2161      C2166   1.405       .  A
C2162      C2163   1.400       .  A
C2162      H2171   1.083       .  S
C2163      C2164   1.403       .  A
C2163      H2172   1.084       .  S
C2164      C2170   1.410       .  A
C2164      C2165   1.416       .  A
C2165      C2167   1.401       .  A
C2165      C2166   1.407       .  A
C2166      H2173   1.084       .  S
C2167      C2168   1.397       .  A
C2167      H2174   1.084       .  S
C2168      C2169   1.405       .  A
C2168      H2175   1.083       .  S
C2169      C2170   1.406       .  A
C2170      H2176   1.084       .  S
C2177      C2178   1.408       .  A
C2177      C2182   1.407       .  A
C2178      C2179   1.398       .  A
C2178      H2187   1.083       .  S
C2179      C2180   1.401       .  A
C2179      H2188   1.084       .  S
C2180      C2186   1.409       .  A
C2180      C2181   1.415       .  A
C2181      C2183   1.402       .  A
C2181      C2182   1.410       .  A
C2182      H2189   1.084       .  S
C2183      C2184   1.400       .  A
C2183      H2190   1.084       .  S
C2184      C2185   1.408       .  A
C2184      H2191   1.083       .  S
C2185      C2186   1.407       .  A
C2186      H2192   1.084       .  S
C2193      C2194   1.407       .  A
C2193      C2198   1.409       .  A
C2194      C2195   1.395       .  A
C2194      H2203   1.083       .  S
C2195      C2196   1.400       .  A
C2195      H2204   1.084       .  S
C2196      C2202   1.403       .  A
C2196      C2197   1.413       .  A
C2197      C2199   1.404       .  A
C2197      C2198   1.410       .  A
C2198      H2205   1.084       .  S
C2199      C2200   1.402       .  A
C2199      H2206   1.083       .  S
C2200      C2201   1.408       .  A
C2200      H2207   1.083       .  S
C2201      C2202   1.408       .  A
C2202      H2208   1.084       .  S
C2209      C2210   1.405       .  A
C2209      C2214   1.405       .  A
C2210      C2211   1.397       .  A
C2210      H2219   1.083       .  S
C2211      C2212   1.402       .  A
C2211      H2220   1.084       .  S
C2212      C2218   1.404   1_565  A
C2212      C2213   1.414       .  A
C2213      C2215   1.401       .  A
C2213      C2214   1.405       .  A
C2214      H2221   1.085       .  S
C2215      C2216   1.397   1_565  A
C2215      H2222   1.084       .  S
C2216      C2217   1.409       .  A
C2216      H2223   1.083       .  S
C2217      C2218   1.407       .  A
C2218      H2224   1.084       .  S
C2225      C2226   1.407       .  A
C2225      C2230   1.404       .  A
C2226      C2227   1.400   1_545  A
C2226      H2235   1.083       .  S
C2227      C2228   1.404       .  A
C2227      H2236   1.084       .  S
C2228      C2234   1.406       .  A
C2228      C2229   1.413       .  A
C2229      C2231   1.399       .  A
C2229      C2230   1.398   1_565  A
C2230      H2237   1.084       .  S
C2231      C2232   1.392       .  A
C2231      H2238   1.084       .  S
C2232      C2233   1.405       .  A
C2232      H2239   1.083       .  S
C2233      C2234   1.408       .  A
C2234      H2240   1.084       .  S
C2241      C2242   1.406   1_554  A
C2241      C2246   1.410   1_554  A
C2242      C2243   1.399       .  A
C2242      H2251   1.083   1_556  S
C2243      C2244   1.404       .  A
C2243      H2252   1.084       .  S
C2244      C2250   1.404       .  A
C2244      C2245   1.411       .  A
C2245      C2247   1.403       .  A
C2245      C2246   1.402       .  A
C2246      H2253   1.084       .  S
C2247      C2248   1.397       .  A
C2247      H2254   1.084       .  S
C2248      C2249   1.406       .  A
C2248      H2255   1.083       .  S
C2249      C2250   1.412       .  A
C2250      H2256   1.084       .  S
C2257      C2258   1.405       .  A
C2257      C2262   1.411       .  A
C2258      C2259   1.400       .  A
C2258      H2267   1.083       .  S
C2259      C2260   1.405       .  A
C2259      H2268   1.084       .  S
C2260      C2266   1.402       .  A
C2260      C2261   1.409       .  A
C2261      C2263   1.404       .  A
C2261      C2262   1.400       .  A
C2262      H2269   1.084       .  S
C2263      C2264   1.398       .  A
C2263      H2270   1.084       .  S
C2264      C2265   1.405       .  A
C2264      H2271   1.083       .  S
C2265      C2266   1.413       .  A
C2266      H2272   1.084       .  S
C2273      C2274   1.408       .  A
C2273      C2278   1.408       .  A
C2274      C2275   1.404       .  A
C2274      H2283   1.083       .  S
C2275      C2276   1.405       .  A
C2275      H2284   1.083       .  S
C2276      C2282   1.413       .  A
C2276      C2277   1.414       .  A
C2277      C2279   1.398       .  A
C2277      C2278   1.404       .  A
C2278      H2285   1.084       .  S
C2279      C2280   1.393       .  A
C2279      H2286   1.084       .  S
C2280      C2281   1.410       .  A
C2280      H2287   1.083       .  S
C2281      C2282   1.410       .  A
C2282      H2288   1.084       .  S
C2289      C2290   1.406       .  A
C2289      C2294   1.409       .  A
C2290      C2291   1.399       .  A
C2290      H2299   1.083       .  S
C2291      C2292   1.403       .  A
C2291      H2300   1.084       .  S
C2292      C2298   1.402       .  A
C2292      C2293   1.411       .  A
C2293      C2295   1.401       .  A
C2293      C2294   1.399       .  A
C2294      H2301   1.084       .  S
C2295      C2296   1.395       .  A
C2295      H2302   1.084       .  S
C2296      C2297   1.406       .  A
C2296      H2303   1.083       .  S
C2297      C2298   1.410       .  A
C2298      H2304   1.084       .  S
C2305      C2306   1.406       .  A
C2305      C2310   1.409       .  A
C2306      C2307   1.400       .  A
C2306      H2315   1.083       .  S
C2307      C2308   1.405       .  A
C2307      H2316   1.084       .  S
C2308      C2314   1.403       .  A
C2308      C2309   1.411       .  A
C2309      C2311   1.403       .  A
C2309      C2310   1.400       .  A
C2310      H2317   1.084       .  S
C2311      C2312   1.396       .  A
C2311      H2318   1.084       .  S
C2312      C2313   1.404       .  A
C2312      H2319   1.083       .  S
C2313      C2314   1.412       .  A
C2314      H2320   1.084       .  S
C2321      C2322   1.408       .  A
C2321      C2326   1.404       .  A
C2322      C2323   1.402       .  A
C2322      H2331   1.083       .  S
C2323      C2324   1.404       .  A
C2323      H2332   1.083       .  S
C2324      C2330   1.409       .  A
C2324      C2325   1.414       .  A
C2325      C2327   1.396       .  A
C2325      C2326   1.398       .  A
C2326      H2333   1.084       .  S
C2327      C2328   1.389       .  A
C2327      H2334   1.084       .  S
C2328      C2329   1.407       .  A
C2328      H2335   1.083       .  S
C2329      C2330   1.408       .  A
C2330      H2336   1.084       .  S
C2337      C2338   1.406       .  A
C2337      C2342   1.412       .  A
C2338      C2339   1.397       .  A
C2338      H2347   1.083       .  S
C2339      C2340   1.402       .  A
C2339      H2348   1.084       .  S
C2340      C2346   1.403       .  A
C2340      C2341   1.412       .  A
C2341      C2343   1.404       .  A
C2341      C2342   1.405       .  A
C2342      H2349   1.084       .  S
C2343      C2344   1.400       .  A
C2343      H2350   1.084       .  S
C2344      C2345   1.407       .  A
C2344      H2351   1.083       .  S
C2345      C2346   1.409       .  A
C2346      H2352   1.084       .  S
C2353      C2354   1.404       .  A
C2353      C2358   1.408       .  A
C2354      C2355   1.396       .  A
C2354      H2363   1.083       .  S
C2355      C2356   1.403       .  A
C2355      H2364   1.084       .  S
C2356      C2362   1.397       .  A
C2356      C2357   1.411       .  A
C2357      C2359   1.403       .  A
C2357      C2358   1.399       .  A
C2358      H2365   1.084       .  S
C2359      C2360   1.397       .  A
C2359      H2366   1.084       .  S
C2360      C2361   1.405       .  A
C2360      H2367   1.083       .  S
C2361      C2362   1.409       .  A
C2362      H2368   1.084       .  S
C2369      C2370   1.404       .  A
C2369      C2374   1.408       .  A
C2370      C2371   1.399       .  A
C2370      H2379   1.083       .  S
C2371      C2372   1.404       .  A
C2371      H2380   1.084       .  S
C2372      C2378   1.403       .  A
C2372      C2373   1.412       .  A
C2373      C2375   1.404       .  A
C2373      C2374   1.406       .  A
C2374      H2381   1.084       .  S
C2375      C2376   1.400       .  A
C2375      H2382   1.083       .  S
C2376      C2377   1.406       .  A
C2376      H2383   1.083       .  S
C2377      C2378   1.412       .  A
C2378      H2384   1.084       .  S
C2385      C2386   1.409       .  A
C2385      C2390   1.409       .  A
C2386      C2387   1.392       .  A
C2386      H2395   1.083       .  S
C2387      C2388   1.397       .  A
C2387      H2396   1.084       .  S
C2388      C2394   1.401       .  A
C2388      C2389   1.414       .  A
C2389      C2391   1.403       .  A
C2389      C2390   1.409       .  A
C2390      H2397   1.084       .  S
C2391      C2392   1.401       .  A
C2391      H2398   1.084       .  S
C2392      C2393   1.409       .  A
C2392      H2399   1.083       .  S
C2393      C2394   1.404       .  A
C2394      H2400   1.084       .  S
C2401      C2402   1.407       .  A
C2401      C2406   1.407       .  A
C2402      C2403   1.399       .  A
C2402      H2411   1.083       .  S
C2403      C2404   1.403       .  A
C2403      H2412   1.084       .  S
C2404      C2410   1.407       .  A
C2404      C2405   1.413       .  A
C2405      C2407   1.403       .  A
C2405      C2406   1.408       .  A
C2406      H2413   1.084       .  S
C2407      C2408   1.400       .  A
C2407      H2414   1.084       .  S
C2408      C2409   1.407       .  A
C2408      H2415   1.083       .  S
C2409      C2410   1.410       .  A
C2410      H2416   1.084       .  S
C2417      C2418   1.406       .  A
C2417      C2422   1.414       .  A
C2418      C2419   1.399       .  A
C2418      H2427   1.083       .  S
C2419      C2420   1.403       .  A
C2419      H2428   1.083       .  S
C2420      C2426   1.405       .  A
C2420      C2421   1.411       .  A
C2421      C2423   1.405       .  A
C2421      C2422   1.408       .  A
C2422      H2429   1.084       .  S
C2423      C2424   1.402   1_556  A
C2423      H2430   1.084       .  S
C2424      C2425   1.407       .  A
C2424      H2431   1.083       .  S
C2425      C2426   1.412   1_554  A
C2426      H2432   1.084   1_556  S
C2433      C2434   1.405       .  A
C2433      C2438   1.412       .  A
C2434      C2435   1.397       .  A
C2434      H2443   1.083       .  S
C2435      C2436   1.403       .  A
C2435      H2444   1.084       .  S
C2436      C2442   1.401       .  A
C2436      C2437   1.410       .  A
C2437      C2439   1.404       .  A
C2437      C2438   1.403       .  A
C2438      H2445   1.084       .  S
C2439      C2440   1.400       .  A
C2439      H2446   1.084       .  S
C2440      C2441   1.406       .  A
C2440      H2447   1.083       .  S
C2441      C2442   1.411       .  A
C2442      H2448   1.084       .  S
C2449      C2450   1.405       .  A
C2449      C2454   1.406       .  A
C2450      C2451   1.392       .  A
C2450      H2459   1.083       .  S
C2451      C2452   1.399       .  A
C2451      H2460   1.084       .  S
C2452      C2458   1.399       .  A
C2452      C2453   1.414       .  A
C2453      C2455   1.402       .  A
C2453      C2454   1.406       .  A
C2454      H2461   1.084       .  S
C2455      C2456   1.399       .  A
C2455      H2462   1.084       .  S
C2456      C2457   1.408       .  A
C2456      H2463   1.083       .  S
C2457      C2458   1.405       .  A
C2458      H2464   1.084       .  S
C2465      C2466   1.406       .  A
C2465      C2470   1.410       .  A
C2466      C2467   1.396       .  A
C2466      H2475   1.083       .  S
C2467      C2468   1.401       .  A
C2467      H2476   1.084       .  S
C2468      C2474   1.404       .  A
C2468      C2469   1.413       .  A
C2469      C2471   1.404       .  A
C2469      C2470   1.409       .  A
C2470      H2477   1.084       .  S
C2471      C2472   1.402       .  A
C2471      H2478   1.084       .  S
C2472      C2473   1.408       .  A
C2472      H2479   1.083       .  S
C2473      C2474   1.409       .  A
C2474      H2480   1.084       .  S
C2481      C2482   1.407       .  A
C2481      C2486   1.405       .  A
C2482      C2483   1.397       .  A
C2482      H2491   1.083       .  S
C2483      C2484   1.401       .  A
C2483      H2492   1.084       .  S
C2484      C2490   1.408       .  A
C2484      C2485   1.416       .  A
C2485      C2487   1.402       .  A
C2485      C2486   1.410       .  A
C2486      H2493   1.084       .  S
C2487      C2488   1.398       .  A
C2487      H2494   1.083       .  S
C2488      C2489   1.406   1_554  A
C2488      H2495   1.083   1_554  S
C2489      C2490   1.405   1_556  A
C2490      H2496   1.085       .  S
C2497      C2498   1.407       .  A
C2497      C2502   1.407       .  A
C2498      C2499   1.393   1_565  A
C2498      H2507   1.083       .  S
C2499      C2500   1.399       .  A
C2499      H2508   1.084       .  S
C2500      C2506   1.401       .  A
C2500      C2501   1.414       .  A
C2501      C2503   1.403       .  A
C2501      C2502   1.408   1_545  A
C2502      H2509   1.084       .  S
C2503      C2504   1.400       .  A
C2503      H2510   1.084       .  S
C2504      C2505   1.408       .  A
C2504      H2511   1.083       .  S
C2505      C2506   1.404       .  A
C2506      H2512   1.084       .  S
C2513      C2514   1.404       .  A
C2513      C2518   1.410       .  A
C2514      C2515   1.396       .  A
C2514      H2523   1.083       .  S
C2515      C2516   1.402       .  A
C2515      H2524   1.084       .  S
C2516      C2522   1.401       .  A
C2516      C2517   1.412       .  A
C2517      C2519   1.406       .  A
C2517      C2518   1.408       .  A
C2518      H2525   1.084       .  S
C2519      C2520   1.404       .  A
C2519      H2526   1.084       .  S
C2520      C2521   1.407       .  A
C2520      H2527   1.083       .  S
C2521      C2522   1.409       .  A
C2522      H2528   1.084       .  S
C2529      C2530   1.407       .  A
C2529      C2534   1.406       .  A
C2530      C2531   1.400       .  A
C2530      H2539   1.083       .  S
C2531      C2532   1.403       .  A
C2531      H2540   1.084       .  S
C2532      C2538   1.410       .  A
C2532      C2533   1.414       .  A
C2533      C2535   1.400       .  A
C2533      C2534   1.407       .  A
C2534      H2541   1.084       .  S
C2535      C2536   1.398       .  A
C2535      H2542   1.084       .  S
C2536      C2537   1.409       .  A
C2536      H2543   1.083       .  S
C2537      C2538   1.411       .  A
C2538      H2544   1.084       .  S
C2545      C2546   1.406       .  A
C2545      C2550   1.405       .  A
C2546      C2547   1.396   1_565  A
C2546      H2555   1.083       .  S
C2547      C2548   1.401       .  A
C2547      H2556   1.084       .  S
C2548      C2554   1.402       .  A
C2548      C2549   1.414       .  A
C2549      C2551   1.401       .  A
C2549      C2550   1.401   1_545  A
C2550      H2557   1.084       .  S
C2551      C2552   1.395       .  A
C2551      H2558   1.084       .  S
C2552      C2553   1.406       .  A
C2552      H2559   1.083       .  S
C2553      C2554   1.406       .  A
C2554      H2560   1.084       .  S
C2561      C2562   1.407       .  A
C2561      C2566   1.408       .  A
C2562      C2563   1.403       .  A
C2562      H2571   1.083       .  S
C2563      C2564   1.405       .  A
C2563      H2572   1.083       .  S
C2564      C2570   1.409       .  A
C2564      C2565   1.413       .  A
C2565      C2567   1.400       .  A
C2565      C2566   1.399       .  A
C2566      H2573   1.084       .  S
C2567      C2568   1.393       .  A
C2567      H2574   1.084       .  S
C2568      C2569   1.404       .  A
C2568      H2575   1.083       .  S
C2569      C2570   1.409       .  A
C2570      H2576   1.084       .  S
C2577      C2578   1.405       .  A
C2577      C2582   1.412       .  A
C2578      C2579   1.396       .  A
C2578      H2587   1.083       .  S
C2579      C2580   1.403       .  A
C2579      H2588   1.084       .  S
C2580      C2586   1.399       .  A
C2580      C2581   1.410       .  A
C2581      C2583   1.405       .  A
C2581      C2582   1.402       .  A
C2582      H2589   1.084       .  S
C2583      C2584   1.400       .  A
C2583      H2590   1.084       .  S
C2584      C2585   1.405       .  A
C2584      H2591   1.083       .  S
C2585      C2586   1.411       .  A
C2586      H2592   1.084       .  S
C2593      C2594   1.405       .  A
C2593      C2598   1.410       .  A
C2594      C2595   1.398       .  A
C2594      H2603   1.083       .  S
C2595      C2596   1.404       .  A
C2595      H2604   1.084       .  S
C2596      C2602   1.401       .  A
C2596      C2597   1.410       .  A
C2597      C2599   1.403       .  A
C2597      C2598   1.399       .  A
C2598      H2605   1.084       .  S
C2599      C2600   1.397       .  A
C2599      H2606   1.084       .  S
C2600      C2601   1.405       .  A
C2600      H2607   1.083       .  S
C2601      C2602   1.412       .  A
C2602      H2608   1.084       .  S
C2609      C2610   1.405       .  A
C2609      C2614   1.408       .  A
C2610      C2611   1.396       .  A
C2610      H2619   1.083   1_556  S
C2611      C2612   1.401       .  A
C2611      H2620   1.084       .  S
C2612      C2618   1.404       .  A
C2612      C2613   1.414       .  A
C2613      C2615   1.403       .  A
C2613      C2614   1.410       .  A
C2614      H2621   1.084       .  S
C2615      C2616   1.401       .  A
C2615      H2622   1.084       .  S
C2616      C2617   1.409       .  A
C2616      H2623   1.083       .  S
C2617      C2618   1.408       .  A
C2618      H2624   1.084       .  S
C2625      C2626   1.399       .  A
C2625      C2630   1.407       .  A
C2626      C2627   1.401       .  A
C2626      H2635   1.083       .  S
C2627      C2628   1.408       .  A
C2627      H2636   1.083       .  S
C2628      C2634   1.401       .  A
C2628      C2629   1.411       .  A
C2629      C2631   1.406       .  A
C2629      C2630   1.400       .  A
C2630      H2637   1.085       .  S
C2631      C2632   1.400       .  A
C2631      H2638   1.084       .  S
C2632      C2633   1.402       .  A
C2632      H2639   1.083       .  S
C2633      C2634   1.410       .  A
C2634      H2640   1.084       .  S
C2641      C2642   1.406       .  A
C2641      C2646   1.411       .  A
C2642      C2643   1.402       .  A
C2642      H2651   1.083       .  S
C2643      C2644   1.405       .  A
C2643      H2652   1.083       .  S
C2644      C2650   1.409       .  A
C2644      C2645   1.412       .  A
C2645      C2647   1.402       .  A
C2645      C2646   1.403       .  A
C2646      H2653   1.084       .  S
C2647      C2648   1.397       .  A
C2647      H2654   1.084       .  S
C2648      C2649   1.405       .  A
C2648      H2655   1.084       .  S
C2649      C2650   1.408       .  A
C2650      H2656   1.084       .  S
C2657      C2658   1.407       .  A
C2657      C2662   1.404       .  A
C2658      C2659   1.401       .  A
C2658      H2667   1.083       .  S
C2659      C2660   1.404       .  A
C2659      H2668   1.084       .  S
C2660      C2666   1.412       .  A
C2660      C2661   1.416       .  A
C2661      C2663   1.401       .  A
C2661      C2662   1.408       .  A
C2662      H2669   1.084       .  S
C2663      C2664   1.397       .  A
C2663      H2670   1.084       .  S
C2664      C2665   1.406       .  A
C2664      H2671   1.083       .  S
C2665      C2666   1.408       .  A
C2666      H2672   1.084       .  S
C2673      C2674   1.407       .  A
C2673      C2678   1.412       .  A
C2674      C2675   1.398       .  A
C2674      H2683   1.083       .  S
C2675      C2676   1.403       .  A
C2675      H2684   1.084       .  S
C2676      C2682   1.405       .  A
C2676      C2677   1.411       .  A
C2677      C2679   1.405       .  A
C2677      C2678   1.408       .  A
C2678      H2685   1.084       .  S
C2679      C2680   1.402       .  A
C2679      H2686   1.083       .  S
C2680      C2681   1.407       .  A
C2680      H2687   1.083       .  S
C2681      C2682   1.412       .  A
C2682      H2688   1.084       .  S
C2689      C2690   1.399       .  A
C2689      C2694   1.407       .  A
C2690      C2691   1.400       .  A
C2690      H2699   1.083       .  S
C2691      C2692   1.408       .  A
C2691      H2700   1.083       .  S
C2692      C2698   1.400       .  A
C2692      C2693   1.411       .  A
C2693      C2695   1.406       .  A
C2693      C2694   1.398       .  A
C2694      H2701   1.085       .  S
C2695      C2696   1.400       .  A
C2695      H2702   1.084       .  S
C2696      C2697   1.399       .  A
C2696      H2703   1.083       .  S
C2697      C2698   1.409       .  A
C2698      H2704   1.085       .  S
C2705      C2706   1.405       .  A
C2705      C2710   1.407       .  A
C2706      C2707   1.394       .  A
C2706      H2715   1.083       .  S
C2707      C2708   1.401       .  A
C2707      H2716   1.084       .  S
C2708      C2714   1.400       .  A
C2708      C2709   1.413       .  A
C2709      C2711   1.403       .  A
C2709      C2710   1.406       .  A
C2710      H2717   1.084       .  S
C2711      C2712   1.400       .  A
C2711      H2718   1.084       .  S
C2712      C2713   1.407       .  A
C2712      H2719   1.083       .  S
C2713      C2714   1.407       .  A
C2714      H2720   1.084       .  S
C2721      C2722   1.406       .  A
C2721      C2726   1.408       .  A
C2722      C2723   1.396       .  A
C2722      H2731   1.083       .  S
C2723      C2724   1.401       .  A
C2723      H2732   1.084       .  S
C2724      C2730   1.404       .  A
C2724      C2725   1.413       .  A
C2725      C2727   1.404       .  A
C2725      C2726   1.408       .  A
C2726      H2733   1.084       .  S
C2727      C2728   1.401       .  A
C2727      H2734   1.083       .  S
C2728      C2729   1.407       .  A
C2728      H2735   1.083       .  S
C2729      C2730   1.409       .  A
C2730      H2736   1.084       .  S
C2737      C2738   1.408       .  A
C2737      C2742   1.411       .  A
C2738      C2739   1.396       .  A
C2738      H2747   1.083       .  S
C2739      C2740   1.400       .  A
C2739      H2748   1.084       .  S
C2740      C2746   1.404       .  A
C2740      C2741   1.413       .  A
C2741      C2743   1.404       .  A
C2741      C2742   1.409       .  A
C2742      H2749   1.084       .  S
C2743      C2744   1.401       .  A
C2743      H2750   1.083       .  S
C2744      C2745   1.407       .  A
C2744      H2751   1.083       .  S
C2745      C2746   1.407       .  A
C2746      H2752   1.084       .  S
C2753      C2754   1.400       .  A
C2753      C2758   1.411       .  A
C2754      C2755   1.393       .  A
C2754      H2763   1.083   1_554  S
C2755      C2756   1.403       .  A
C2755      H2764   1.084       .  S
C2756      C2762   1.395       .  A
C2756      C2757   1.410       .  A
C2757      C2759   1.409       .  A
C2757      C2758   1.408       .  A
C2758      H2765   1.084       .  S
C2759      C2760   1.407       .  A
C2759      H2766   1.083       .  S
C2760      C2761   1.406       .  A
C2760      H2767   1.083       .  S
C2761      C2762   1.412       .  A
C2762      H2768   1.084       .  S
C2769      C2770   1.406       .  A
C2769      C2774   1.409       .  A
C2770      C2771   1.397       .  A
C2770      H2779   1.083       .  S
C2771      C2772   1.400       .  A
C2771      H2780   1.084       .  S
C2772      C2778   1.407       .  A
C2772      C2773   1.415       .  A
C2773      C2775   1.402       .  A
C2773      C2774   1.410       .  A
C2774      H2781   1.084       .  S
C2775      C2776   1.400       .  A
C2775      H2782   1.084       .  S
C2776      C2777   1.410       .  A
C2776      H2783   1.083       .  S
C2777      C2778   1.406       .  A
C2778      H2784   1.084       .  S
C2785      C2786   1.405       .  A
C2785      C2790   1.405       .  A
C2786      C2787   1.396       .  A
C2786      H2795   1.083       .  S
C2787      C2788   1.402       .  A
C2787      H2796   1.084       .  S
C2788      C2794   1.403       .  A
C2788      C2789   1.414       .  A
C2789      C2791   1.401   1_556  A
C2789      C2790   1.403       .  A
C2790      H2797   1.085   1_556  S
C2791      C2792   1.397   1_554  A
C2791      H2798   1.084       .  S
C2792      C2793   1.408       .  A
C2792      H2799   1.083   1_556  S
C2793      C2794   1.407       .  A
C2794      H2800   1.084       .  S
C2801      C2802   1.406       .  A
C2801      C2806   1.412       .  A
C2802      C2803   1.400       .  A
C2802      H2811   1.083       .  S
C2803      C2804   1.405       .  A
C2803      H2812   1.084       .  S
C2804      C2810   1.405       .  A
C2804      C2805   1.410       .  A
C2805      C2807   1.404       .  A
C2805      C2806   1.404       .  A
C2806      H2813   1.084       .  S
C2807      C2808   1.400       .  A
C2807      H2814   1.084       .  S
C2808      C2809   1.406       .  A
C2808      H2815   1.083       .  S
C2809      C2810   1.413       .  A
C2810      H2816   1.084       .  S
C2817      C2818   1.405       .  A
C2817      C2822   1.413       .  A
C2818      C2819   1.400       .  A
C2818      H2827   1.083       .  S
C2819      C2820   1.405       .  A
C2819      H2828   1.084       .  S
C2820      C2826   1.403       .  A
C2820      C2821   1.409       .  A
C2821      C2823   1.405       .  A
C2821      C2822   1.403       .  A
C2822      H2829   1.084       .  S
C2823      C2824   1.400       .  A
C2823      H2830   1.084       .  S
C2824      C2825   1.406       .  A
C2824      H2831   1.083       .  S
C2825      C2826   1.413       .  A
C2826      H2832   1.084       .  S
C2833      C2834   1.408       .  A
C2833      C2838   1.412       .  A
C2834      C2835   1.393       .  A
C2834      H2843   1.083       .  S
C2835      C2836   1.399       .  A
C2835      H2844   1.084       .  S
C2836      C2842   1.403       .  A
C2836      C2837   1.413       .  A
C2837      C2839   1.406       .  A
C2837      C2838   1.415       .  A
C2838      H2845   1.084       .  S
C2839      C2840   1.406       .  A
C2839      H2846   1.083       .  S
C2840      C2841   1.408       .  A
C2840      H2847   1.083       .  S
C2841      C2842   1.409       .  A
C2842      H2848   1.084       .  S
C2849      C2850   1.403       .  A
C2849      C2854   1.408       .  A
C2850      C2851   1.400       .  A
C2850      H2859   1.083       .  S
C2851      C2852   1.405       .  A
C2851      H2860   1.084       .  S
C2852      C2858   1.404       .  A
C2852      C2853   1.413       .  A
C2853      C2855   1.406       .  A
C2853      C2854   1.404       .  A
C2854      H2861   1.085       .  S
C2855      C2856   1.401       .  A
C2855      H2862   1.084       .  S
C2856      C2857   1.401       .  A
C2856      H2863   1.083       .  S
C2857      C2858   1.406       .  A
C2858      H2864   1.085       .  S
C2865      C2866   1.408       .  A
C2865      C2870   1.410       .  A
C2866      C2867   1.398   1_455  A
C2866      H2875   1.083       .  S
C2867      C2868   1.401       .  A
C2867      H2876   1.084       .  S
C2868      C2874   1.404       .  A
C2868      C2869   1.413       .  A
C2869      C2871   1.403       .  A
C2869      C2870   1.406   1_655  A
C2870      H2877   1.084       .  S
C2871      C2872   1.399       .  A
C2871      H2878   1.084       .  S
C2872      C2873   1.406       .  A
C2872      H2879   1.083       .  S
C2873      C2874   1.406       .  A
C2874      H2880   1.084       .  S
C2881      C2882   1.406       .  A
C2881      C2886   1.411       .  A
C2882      C2883   1.397       .  A
C2882      H2891   1.083       .  S
C2883      C2884   1.402       .  A
C2883      H2892   1.084       .  S
C2884      C2890   1.403   1_565  A
C2884      C2885   1.412       .  A
C2885      C2887   1.405       .  A
C2885      C2886   1.407       .  A
C2886      H2893   1.084       .  S
C2887      C2888   1.401   1_565  A
C2887      H2894   1.084       .  S
C2888      C2889   1.405       .  A
C2888      H2895   1.083       .  S
C2889      C2890   1.408       .  A
C2890      H2896   1.084       .  S
C2897      C2898   1.402       .  A
C2897      C2902   1.409       .  A
C2898      C2899   1.402       .  A
C2898      H2907   1.083       .  S
C2899      C2900   1.406       .  A
C2899      H2908   1.083       .  S
C2900      C2906   1.405       .  A
C2900      C2901   1.412       .  A
C2901      C2903   1.406       .  A
C2901      C2902   1.403       .  A
C2902      H2909   1.085       .  S
C2903      C2904   1.400       .  A
C2903      H2910   1.084       .  S
C2904      C2905   1.401       .  A
C2904      H2911   1.083       .  S
C2905      C2906   1.408       .  A
C2906      H2912   1.085       .  S
C2913      C2914   1.408       .  A
C2913      C2918   1.405       .  A
C2914      C2915   1.402       .  A
C2914      H2923   1.083       .  S
C2915      C2916   1.404       .  A
C2915      H2924   1.084       .  S
C2916      C2922   1.409   1_655  A
C2916      C2917   1.414       .  A
C2917      C2919   1.398       .  A
C2917      C2918   1.399       .  A
C2918      H2925   1.084       .  S
C2919      C2920   1.392   1_655  A
C2919      H2926   1.084       .  S
C2920      C2921   1.405       .  A
C2920      H2927   1.083       .  S
C2921      C2922   1.409       .  A
C2922      H2928   1.084       .  S
C2929      C2930   1.405       .  A
C2929      C2934   1.404       .  A
C2930      C2931   1.397       .  A
C2930      H2939   1.083       .  S
C2931      C2932   1.402       .  A
C2931      H2940   1.084       .  S
C2932      C2938   1.404   1_565  A
C2932      C2933   1.414       .  A
C2933      C2935   1.400       .  A
C2933      C2934   1.402       .  A
C2934      H2941   1.085       .  S
C2935      C2936   1.396   1_565  A
C2935      H2942   1.084       .  S
C2936      C2937   1.408       .  A
C2936      H2943   1.083       .  S
C2937      C2938   1.408       .  A
C2938      H2944   1.084       .  S
C2945      C2946   1.404       .  A
C2945      C2950   1.413       .  A
C2946      C2947   1.398       .  A
C2946      H2955   1.083       .  S
C2947      C2948   1.404       .  A
C2947      H2956   1.084       .  S
C2948      C2954   1.400       .  A
C2948      C2949   1.410       .  A
C2949      C2951   1.406       .  A
C2949      C2950   1.403       .  A
C2950      H2957   1.084       .  S
C2951      C2952   1.401       .  A
C2951      H2958   1.084       .  S
C2952      C2953   1.405       .  A
C2952      H2959   1.083       .  S
C2953      C2954   1.411       .  A
C2954      H2960   1.084       .  S
C2961      C2962   1.407       .  A
C2961      C2966   1.408       .  A
C2962      C2963   1.397       .  A
C2962      H2971   1.083       .  S
C2963      C2964   1.402       .  A
C2963      H2972   1.084       .  S
C2964      C2970   1.401       .  A
C2964      C2965   1.412       .  A
C2965      C2967   1.401       .  A
C2965      C2966   1.400       .  A
C2966      H2973   1.084       .  S
C2967      C2968   1.396       .  A
C2967      H2974   1.084       .  S
C2968      C2969   1.406       .  A
C2968      H2975   1.083       .  S
C2969      C2970   1.410       .  A
C2970      H2976   1.084       .  S
C2977      C2978   1.401       .  A
C2977      C2982   1.408       .  A
C2978      C2979   1.399       .  A
C2978      H2987   1.083   1_556  S
C2979      C2980   1.405       .  A
C2979      H2988   1.084   1_556  S
C2980      C2986   1.399       .  A
C2980      C2981   1.412       .  A
C2981      C2983   1.406       .  A
C2981      C2982   1.400       .  A
C2982      H2989   1.085       .  S
C2983      C2984   1.400       .  A
C2983      H2990   1.084       .  S
C2984      C2985   1.400       .  A
C2984      H2991   1.083       .  S
C2985      C2986   1.406       .  A
C2986      H2992   1.085       .  S
C2993      C2994   1.409       .  A
C2993      C2998   1.408       .  A
C2994      C2995   1.398   1_455  A
C2994      H3003   1.083       .  S
C2995      C2996   1.401       .  A
C2995      H3004   1.084       .  S
C2996      C3002   1.406       .  A
C2996      C2997   1.414       .  A
C2997      C2999   1.402       .  A
C2997      C2998   1.405   1_655  A
C2998      H3005   1.084       .  S
C2999      C3000   1.397       .  A
C2999      H3006   1.083       .  S
C3000      C3001   1.404       .  A
C3000      H3007   1.083       .  S
C3001      C3002   1.406       .  A
C3002      H3008   1.085       .  S
C3009      C3010   1.407       .  A
C3009      C3014   1.402       .  A
C3010      C3011   1.401       .  A
C3010      H3019   1.083       .  S
C3011      C3012   1.403       .  A
C3011      H3020   1.083       .  S
C3012      C3018   1.410       .  A
C3012      C3013   1.415       .  A
C3013      C3015   1.395       .  A
C3013      C3014   1.399       .  A
C3014      H3021   1.085       .  S
C3015      C3016   1.389       .  A
C3015      H3022   1.084       .  S
C3016      C3017   1.411       .  A
C3016      H3023   1.082       .  S
C3017      C3018   1.408       .  A
C3018      H3024   1.084       .  S
C3025      C3026   1.400       .  A
C3025      C3030   1.407       .  A
C3026      C3027   1.397       .  A
C3026      H3035   1.083       .  S
C3027      C3028   1.404       .  A
C3027      H3036   1.084       .  S
C3028      C3034   1.399       .  A
C3028      C3029   1.412       .  A
C3029      C3031   1.406       .  A
C3029      C3030   1.404       .  A
C3030      H3037   1.085       .  S
C3031      C3032   1.402       .  A
C3031      H3038   1.084       .  S
C3032      C3033   1.404       .  A
C3032      H3039   1.083       .  S
C3033      C3034   1.407       .  A
C3034      H3040   1.085       .  S
C3041      C3042   1.404       .  A
C3041      C3046   1.404       .  A
C3042      C3043   1.399       .  A
C3042      H3051   1.083       .  S
C3043      C3044   1.404       .  A
C3043      H3052   1.083       .  S
C3044      C3050   1.406   1_655  A
C3044      C3045   1.414       .  A
C3045      C3047   1.400       .  A
C3045      C3046   1.402       .  A
C3046      H3053   1.085       .  S
C3047      C3048   1.396   1_655  A
C3047      H3054   1.084       .  S
C3048      C3049   1.408       .  A
C3048      H3055   1.083       .  S
C3049      C3050   1.409       .  A
C3050      H3056   1.084       .  S
C3057      C3058   1.407       .  A
C3057      C3062   1.410       .  A
C3058      C3059   1.401       .  A
C3058      H3067   1.083       .  S
C3059      C3060   1.404       .  A
C3059      H3068   1.084       .  S
C3060      C3066   1.408       .  A
C3060      C3061   1.412       .  A
C3061      C3063   1.402       .  A
C3061      C3062   1.404       .  A
C3062      H3069   1.084       .  S
C3063      C3064   1.398       .  A
C3063      H3070   1.084       .  S
C3064      C3065   1.406       .  A
C3064      H3071   1.083       .  S
C3065      C3066   1.412       .  A
C3066      H3072   1.084       .  S
C3073      C3074   1.406       .  A
C3073      C3078   1.406       .  A
C3074      C3075   1.398       .  A
C3074      H3083   1.083       .  S
C3075      C3076   1.401       .  A
C3075      H3084   1.084       .  S
C3076      C3082   1.410       .  A
C3076      C3077   1.417       .  A
C3077      C3079   1.402       .  A
C3077      C3078   1.411       .  A
C3078      H3085   1.084       .  S
C3079      C3080   1.399       .  A
C3079      H3086   1.083       .  S
C3080      C3081   1.405       .  A
C3080      H3087   1.083       .  S
C3081      C3082   1.405       .  A
C3082      H3088   1.085       .  S
C3089      C3090   1.411       .  A
C3089      C3094   1.411       .  A
C3090      C3091   1.390       .  A
C3090      H3099   1.082       .  S
C3091      C3092   1.396       .  A
C3091      H3100   1.084       .  S
C3092      C3098   1.401       .  A
C3092      C3093   1.414       .  A
C3093      C3095   1.405       .  A
C3093      C3094   1.414       .  A
C3094      H3101   1.084       .  S
C3095      C3096   1.404       .  A
C3095      H3102   1.083       .  S
C3096      C3097   1.408       .  A
C3096      H3103   1.083       .  S
C3097      C3098   1.405       .  A
C3098      H3104   1.084       .  S
C3105      C3106   1.401       .  A
C3105      C3110   1.407       .  A
C3106      C3107   1.393       .  A
C3106      H3115   1.084       .  S
C3107      C3108   1.402       .  A
C3107      H3116   1.084       .  S
C3108      C3114   1.396       .  A
C3108      C3109   1.411       .  A
C3109      C3111   1.405       .  A
C3109      C3110   1.404       .  A
C3110      H3117   1.085       .  S
C3111      C3112   1.402       .  A
C3111      H3118   1.084       .  S
C3112      C3113   1.406       .  A
C3112      H3119   1.083       .  S
C3113      C3114   1.410       .  A
C3114      H3120   1.084       .  S
C3121      C3122   1.404       .  A
C3121      C3126   1.408       .  A
C3122      C3123   1.393       .  A
C3122      H3131   1.083       .  S
C3123      C3124   1.400       .  A
C3123      H3132   1.084       .  S
C3124      C3130   1.397       .  A
C3124      C3125   1.413       .  A
C3125      C3127   1.403       .  A
C3125      C3126   1.402       .  A
C3126      H3133   1.084       .  S
C3127      C3128   1.398       .  A
C3127      H3134   1.084       .  S
C3128      C3129   1.405       .  A
C3128      H3135   1.083       .  S
C3129      C3130   1.405       .  A
C3130      H3136   1.085       .  S
C3137      C3138   1.399       .  A
C3137      C3142   1.410       .  A
C3138      C3139   1.399       .  A
C3138      H3147   1.083       .  S
C3139      C3140   1.406       .  A
C3139      H3148   1.084       .  S
C3140      C3146   1.401       .  A
C3140      C3141   1.411       .  A
C3141      C3143   1.410       .  A
C3141      C3142   1.408       .  A
C3142      H3149   1.084       .  S
C3143      C3144   1.407       .  A
C3143      H3150   1.083       .  S
C3144      C3145   1.403       .  A
C3144      H3151   1.083       .  S
C3145      C3146   1.411       .  A
C3146      H3152   1.085       .  S
C3153      C3154   1.405       .  A
C3153      C3158   1.412       .  A
C3154      C3155   1.392       .  A
C3154      H3163   1.083       .  S
C3155      C3156   1.399       .  A
C3155      H3164   1.084       .  S
C3156      C3162   1.400       .  A
C3156      C3157   1.413       .  A
C3157      C3159   1.407       .  A
C3157      C3158   1.413       .  A
C3158      H3165   1.084       .  S
C3159      C3160   1.406       .  A
C3159      H3166   1.083       .  S
C3160      C3161   1.408       .  A
C3160      H3167   1.083       .  S
C3161      C3162   1.407       .  A
C3162      H3168   1.084       .  S
C3169      C3170   1.405       .  A
C3169      C3174   1.410       .  A
C3170      C3171   1.397       .  A
C3170      H3179   1.083       .  S
C3171      C3172   1.403       .  A
C3171      H3180   1.084       .  S
C3172      C3178   1.400       .  A
C3172      C3173   1.411       .  A
C3173      C3175   1.403       .  A
C3173      C3174   1.400       .  A
C3174      H3181   1.084       .  S
C3175      C3176   1.397       .  A
C3175      H3182   1.084       .  S
C3176      C3177   1.404       .  A
C3176      H3183   1.083       .  S
C3177      C3178   1.409       .  A
C3178      H3184   1.084       .  S
C3185      C3186   1.406       .  A
C3185      C3190   1.411       .  A
C3186      C3187   1.399       .  A
C3186      H3195   1.083       .  S
C3187      C3188   1.404       .  A
C3187      H3196   1.084       .  S
C3188      C3194   1.402       .  A
C3188      C3189   1.410       .  A
C3189      C3191   1.403       .  A
C3189      C3190   1.401       .  A
C3190      H3197   1.084       .  S
C3191      C3192   1.397       .  A
C3191      H3198   1.084       .  S
C3192      C3193   1.405       .  A
C3192      H3199   1.083       .  S
C3193      C3194   1.412       .  A
C3194      H3200   1.084       .  S
C3201      C3202   1.400       .  A
C3201      C3206   1.408       .  A
C3202      C3203   1.393       .  A
C3202      H3211   1.084       .  S
C3203      C3204   1.402       .  A
C3203      H3212   1.084       .  S
C3204      C3210   1.397       .  A
C3204      C3205   1.411       .  A
C3205      C3207   1.406       .  A
C3205      C3206   1.407       .  A
C3206      H3213   1.085       .  S
C3207      C3208   1.404       .  A
C3207      H3214   1.083       .  S
C3208      C3209   1.406       .  A
C3208      H3215   1.083       .  S
C3209      C3210   1.411       .  A
C3210      H3216   1.084       .  S
C3217      C3218   1.408       .  A
C3217      C3222   1.407       .  A
C3218      C3219   1.401       .  A
C3218      H3227   1.083       .  S
C3219      C3220   1.403       .  A
C3219      H3228   1.084       .  S
C3220      C3226   1.408       .  A
C3220      C3221   1.414       .  A
C3221      C3223   1.400       .  A
C3221      C3222   1.402       .  A
C3222      H3229   1.084       .  S
C3223      C3224   1.395       .  A
C3223      H3230   1.084       .  S
C3224      C3225   1.405       .  A
C3224      H3231   1.083       .  S
C3225      C3226   1.407       .  A
C3226      H3232   1.084       .  S
C3233      C3234   1.406       .  A
C3233      C3238   1.408       .  A
C3234      C3235   1.397       .  A
C3234      H3243   1.083       .  S
C3235      C3236   1.402       .  A
C3235      H3244   1.084       .  S
C3236      C3242   1.401       .  A
C3236      C3237   1.413       .  A
C3237      C3239   1.402       .  A
C3237      C3238   1.399       .  A
C3238      H3245   1.084       .  S
C3239      C3240   1.394       .  A
C3239      H3246   1.084       .  S
C3240      C3241   1.403       .  A
C3240      H3247   1.083       .  S
C3241      C3242   1.405       .  A
C3242      H3248   1.085       .  S
C3249      C3250   1.408       .  A
C3249      C3254   1.406       .  A
C3250      C3251   1.401       .  A
C3250      H3259   1.083       .  S
C3251      C3252   1.403       .  A
C3251      H3260   1.083       .  S
C3252      C3258   1.411       .  A
C3252      C3253   1.415       .  A
C3253      C3255   1.398       .  A
C3253      C3254   1.406       .  A
C3254      H3261   1.084       .  S
C3255      C3256   1.395       .  A
C3255      H3262   1.084       .  S
C3256      C3257   1.410       .  A
C3256      H3263   1.083       .  S
C3257      C3258   1.409       .  A
C3258      H3264   1.084       .  S
C3265      C3266   1.404       .  A
C3265      C3270   1.413       .  A
C3266      C3267   1.405       .  A
C3266      H3275   1.083       .  S
C3267      C3268   1.408       .  A
C3267      H3276   1.083       .  S
C3268      C3274   1.407       .  A
C3268      C3269   1.410       .  A
C3269      C3271   1.406       .  A
C3269      C3270   1.401       .  A
C3270      H3277   1.084       .  S
C3271      C3272   1.398       .  A
C3271      H3278   1.084   1_554  S
C3272      C3273   1.400       .  A
C3272      H3279   1.083   1_554  S
C3273      C3274   1.409       .  A
C3274      H3280   1.085       .  S
C3281      C3282   1.408   1_554  A
C3281      C3286   1.407       .  A
C3282      C3283   1.398       .  A
C3282      H3291   1.083       .  S
C3283      C3284   1.401   1_556  A
C3283      H3292   1.084       .  S
C3284      C3290   1.405       .  A
C3284      C3285   1.414       .  A
C3285      C3287   1.400       .  A
C3285      C3286   1.401       .  A
C3286      H3293   1.084       .  S
C3287      C3288   1.394       .  A
C3287      H3294   1.084       .  S
C3288      C3289   1.405       .  A
C3288      H3295   1.083       .  S
C3289      C3290   1.405       .  A
C3290      H3296   1.084   1_554  S
C3297      C3298   1.409       .  A
C3297      C3302   1.406       .  A
C3298      C3299   1.397       .  A
C3298      H3307   1.083       .  S
C3299      C3300   1.400       .  A
C3299      H3308   1.084       .  S
C3300      C3306   1.407       .  A
C3300      C3301   1.415       .  A
C3301      C3303   1.401       .  A
C3301      C3302   1.407       .  A
C3302      H3309   1.084       .  S
C3303      C3304   1.397       .  A
C3303      H3310   1.084       .  S
C3304      C3305   1.408       .  A
C3304      H3311   1.083       .  S
C3305      C3306   1.406       .  A
C3306      H3312   1.084       .  S
C3313      C3314   1.404       .  A
C3313      C3318   1.411       .  A
C3314      C3315   1.398       .  A
C3314      H3323   1.083       .  S
C3315      C3316   1.404       .  A
C3315      H3324   1.084       .  S
C3316      C3322   1.400       .  A
C3316      C3317   1.410       .  A
C3317      C3319   1.404       .  A
C3317      C3318   1.401       .  A
C3318      H3325   1.084       .  S
C3319      C3320   1.399       .  A
C3319      H3326   1.084       .  S
C3320      C3321   1.406       .  A
C3320      H3327   1.083       .  S
C3321      C3322   1.410       .  A
C3322      H3328   1.084       .  S
C3329      C3330   1.405       .  A
C3329      C3334   1.410       .  A
C3330      C3331   1.395       .  A
C3330      H3339   1.083       .  S
C3331      C3332   1.402       .  A
C3331      H3340   1.084       .  S
C3332      C3338   1.398       .  A
C3332      C3333   1.411       .  A
C3333      C3335   1.404       .  A
C3333      C3334   1.401       .  A
C3334      H3341   1.084       .  S
C3335      C3336   1.398       .  A
C3335      H3342   1.084       .  S
C3336      C3337   1.404       .  A
C3336      H3343   1.083       .  S
C3337      C3338   1.408       .  A
C3338      H3344   1.084       .  S
C3345      C3346   1.410       .  A
C3345      C3350   1.407       .  A
C3346      C3347   1.404       .  A
C3346      H3355   1.083       .  S
C3347      C3348   1.405       .  A
C3347      H3356   1.084       .  S
C3348      C3354   1.414       .  A
C3348      C3349   1.414       .  A
C3349      C3351   1.400       .  A
C3349      C3350   1.405       .  A
C3350      H3357   1.084       .  S
C3351      C3352   1.395       .  A
C3351      H3358   1.084       .  S
C3352      C3353   1.405       .  A
C3352      H3359   1.083       .  S
C3353      C3354   1.411       .  A
C3354      H3360   1.084       .  S
C3361      C3362   1.402       .  A
C3361      C3366   1.408       .  A
C3362      C3363   1.402       .  A
C3362      H3371   1.083       .  S
C3363      C3364   1.406       .  A
C3363      H3372   1.083       .  S
C3364      C3370   1.410       .  A
C3364      C3365   1.413       .  A
C3365      C3367   1.404       .  A
C3365      C3366   1.408       .  A
C3366      H3373   1.085       .  S
C3367      C3368   1.402       .  A
C3367      H3374   1.084       .  S
C3368      C3369   1.406       .  A
C3368      H3375   1.083       .  S
C3369      C3370   1.413       .  A
C3370      H3376   1.084       .  S
C3377      C3378   1.407       .  A
C3377      C3382   1.404       .  A
C3378      C3379   1.393       .  A
C3378      H3387   1.083       .  S
C3379      C3380   1.399       .  A
C3379      H3388   1.084       .  S
C3380      C3386   1.400   1_545  A
C3380      C3381   1.415       .  A
C3381      C3383   1.400       .  A
C3381      C3382   1.401       .  A
C3382      H3389   1.084       .  S
C3383      C3384   1.395   1_545  A
C3383      H3390   1.084       .  S
C3384      C3385   1.407       .  A
C3384      H3391   1.083       .  S
C3385      C3386   1.402       .  A
C3386      H3392   1.084       .  S
C3393      C3394   1.410       .  A
C3393      C3398   1.406       .  A
C3394      C3395   1.400   1_655  A
C3394      H3403   1.083       .  S
C3395      C3396   1.402       .  A
C3395      H3404   1.084       .  S
C3396      C3402   1.408       .  A
C3396      C3397   1.415       .  A
C3397      C3399   1.401       .  A
C3397      C3398   1.403   1_455  A
C3398      H3405   1.084       .  S
C3399      C3400   1.395       .  A
C3399      H3406   1.083       .  S
C3400      C3401   1.402       .  A
C3400      H3407   1.083       .  S
C3401      C3402   1.405       .  A
C3402      H3408   1.085       .  S
C3409      C3410   1.400       .  A
C3409      C3414   1.407       .  A
C3410      C3411   1.398       .  A
C3410      H3419   1.083       .  S
C3411      C3412   1.404       .  A
C3411      H3420   1.084       .  S
C3412      C3418   1.399       .  A
C3412      C3413   1.412       .  A
C3413      C3415   1.407       .  A
C3413      C3414   1.404       .  A
C3414      H3421   1.084       .  S
C3415      C3416   1.402       .  A
C3415      H3422   1.084       .  S
C3416      C3417   1.403       .  A
C3416      H3423   1.083       .  S
C3417      C3418   1.407       .  A
C3418      H3424   1.085       .  S
C3425      C3426   1.405       .  A
C3425      C3430   1.408       .  A
C3426      C3427   1.397   1_565  A
C3426      H3435   1.083       .  S
C3427      C3428   1.402       .  A
C3427      H3436   1.084       .  S
C3428      C3434   1.404       .  A
C3428      C3429   1.413       .  A
C3429      C3431   1.403       .  A
C3429      C3430   1.406   1_545  A
C3430      H3437   1.084       .  S
C3431      C3432   1.399       .  A
C3431      H3438   1.084       .  S
C3432      C3433   1.407       .  A
C3432      H3439   1.083       .  S
C3433      C3434   1.408       .  A
C3434      H3440   1.084       .  S
C3441      C3442   1.407       .  A
C3441      C3446   1.409       .  A
C3442      C3443   1.396   1_655  A
C3442      H3451   1.083       .  S
C3443      C3444   1.400       .  A
C3443      H3452   1.084       .  S
C3444      C3450   1.407       .  A
C3444      C3445   1.415       .  A
C3445      C3447   1.403       .  A
C3445      C3446   1.411   1_455  A
C3446      H3453   1.084       .  S
C3447      C3448   1.402       .  A
C3447      H3454   1.084       .  S
C3448      C3449   1.409       .  A
C3448      H3455   1.083       .  S
C3449      C3450   1.407       .  A
C3450      H3456   1.084       .  S
C3457      C3458   1.406   1_554  A
C3457      C3462   1.411   1_554  A
C3458      C3459   1.397       .  A
C3458      H3467   1.083   1_556  S
C3459      C3460   1.402       .  A
C3459      H3468   1.084       .  S
C3460      C3466   1.402       .  A
C3460      C3461   1.411       .  A
C3461      C3463   1.403       .  A
C3461      C3462   1.403       .  A
C3462      H3469   1.084   1_556  S
C3463      C3464   1.398       .  A
C3463      H3470   1.084       .  S
C3464      C3465   1.407       .  A
C3464      H3471   1.083       .  S
C3465      C3466   1.409       .  A
C3466      H3472   1.084       .  S
C3473      C3474   1.404       .  A
C3473      C3478   1.412       .  A
C3474      C3475   1.400       .  A
C3474      H3483   1.083       .  S
C3475      C3476   1.405       .  A
C3475      H3484   1.084       .  S
C3476      C3482   1.403       .  A
C3476      C3477   1.410       .  A
C3477      C3479   1.405       .  A
C3477      C3478   1.404       .  A
C3478      H3485   1.084       .  S
C3479      C3480   1.400       .  A
C3479      H3486   1.084       .  S
C3480      C3481   1.405       .  A
C3480      H3487   1.083       .  S
C3481      C3482   1.412       .  A
C3482      H3488   1.084       .  S
C3489      C3490   1.401   1_556  A
C3489      C3494   1.408       .  A
C3490      C3491   1.401       .  A
C3490      H3499   1.083       .  S
C3491      C3492   1.406   1_554  A
C3491      H3500   1.083       .  S
C3492      C3498   1.404       .  A
C3492      C3493   1.412       .  A
C3493      C3495   1.406       .  A
C3493      C3494   1.403       .  A
C3494      H3501   1.085       .  S
C3495      C3496   1.401       .  A
C3495      H3502   1.084       .  S
C3496      C3497   1.401       .  A
C3496      H3503   1.083       .  S
C3497      C3498   1.408       .  A
C3498      H3504   1.085       .  S
C3505      C3506   1.405       .  A
C3505      C3510   1.407       .  A
C3506      C3507   1.401       .  A
C3506      H3515   1.083       .  S
C3507      C3508   1.404       .  A
C3507      H3516   1.083       .  S
C3508      C3514   1.405       .  A
C3508      C3509   1.413       .  A
C3509      C3511   1.400       .  A
C3509      C3510   1.399       .  A
C3510      H3517   1.085       .  S
C3511      C3512   1.394       .  A
C3511      H3518   1.084       .  S
C3512      C3513   1.405       .  A
C3512      H3519   1.083       .  S
C3513      C3514   1.406       .  A
C3514      H3520   1.084       .  S
C3521      C3522   1.402       .  A
C3521      C3526   1.407       .  A
C3522      C3523   1.396   1_655  A
C3522      H3531   1.083       .  S
C3523      C3524   1.403       .  A
C3523      H3532   1.084       .  S
C3524      C3530   1.401       .  A
C3524      C3525   1.412       .  A
C3525      C3527   1.404       .  A
C3525      C3526   1.406   1_455  A
C3526      H3533   1.084       .  S
C3527      C3528   1.401       .  A
C3527      H3534   1.084       .  S
C3528      C3529   1.406       .  A
C3528      H3535   1.083       .  S
C3529      C3530   1.410       .  A
C3530      H3536   1.084       .  S
C3537      C3538   1.407       .  A
C3537      C3542   1.404       .  A
C3538      C3539   1.400       .  A
C3538      H3547   1.083       .  S
C3539      C3540   1.403       .  A
C3539      H3548   1.083       .  S
C3540      C3546   1.408       .  A
C3540      C3541   1.414       .  A
C3541      C3543   1.398       .  A
C3541      C3542   1.400       .  A
C3542      H3549   1.084       .  S
C3543      C3544   1.392       .  A
C3543      H3550   1.084       .  S
C3544      C3545   1.409       .  A
C3544      H3551   1.083       .  S
C3545      C3546   1.408       .  A
C3546      H3552   1.084       .  S
C3553      C3554   1.402       .  A
C3553      C3558   1.405       .  A
C3554      C3555   1.398       .  A
C3554      H3563   1.083       .  S
C3555      C3556   1.405       .  A
C3555      H3564   1.084       .  S
C3556      C3562   1.400       .  A
C3556      C3557   1.413       .  A
C3557      C3559   1.405       .  A
C3557      C3558   1.399       .  A
C3558      H3565   1.085       .  S
C3559      C3560   1.398       .  A
C3559      H3566   1.083       .  S
C3560      C3561   1.399       .  A
C3560      H3567   1.083       .  S
C3561      C3562   1.406       .  A
C3562      H3568   1.085       .  S
C3569      C3570   1.408       .  A
C3569      C3574   1.406       .  A
C3570      C3571   1.399       .  A
C3570      H3579   1.083       .  S
C3571      C3572   1.402       .  A
C3571      H3580   1.084       .  S
C3572      C3578   1.410       .  A
C3572      C3573   1.415       .  A
C3573      C3575   1.401       .  A
C3573      C3574   1.410       .  A
C3574      H3581   1.084       .  S
C3575      C3576   1.399       .  A
C3575      H3582   1.084       .  S
C3576      C3577   1.410       .  A
C3576      H3583   1.082       .  S
C3577      C3578   1.409       .  A
C3578      H3584   1.084       .  S
C3585      C3586   1.407       .  A
C3585      C3590   1.408       .  A
C3586      C3587   1.398       .  A
C3586      H3595   1.083       .  S
C3587      C3588   1.401       .  A
C3587      H3596   1.084       .  S
C3588      C3594   1.406   1_455  A
C3588      C3589   1.414       .  A
C3589      C3591   1.402       .  A
C3589      C3590   1.407       .  A
C3590      H3597   1.084       .  S
C3591      C3592   1.398   1_455  A
C3591      H3598   1.084       .  S
C3592      C3593   1.407       .  A
C3592      H3599   1.083       .  S
C3593      C3594   1.407       .  A
C3594      H3600   1.084       .  S
C3601      C3602   1.408       .  A
C3601      C3606   1.403       .  A
C3602      C3603   1.396       .  A
C3602      H3611   1.083       .  S
C3603      C3604   1.401       .  A
C3603      H3612   1.084       .  S
C3604      C3610   1.405       .  A
C3604      C3605   1.415       .  A
C3605      C3607   1.399       .  A
C3605      C3606   1.401       .  A
C3606      H3613   1.084       .  S
C3607      C3608   1.394       .  A
C3607      H3614   1.084       .  S
C3608      C3609   1.407       .  A
C3608      H3615   1.083       .  S
C3609      C3610   1.406       .  A
C3610      H3616   1.084       .  S
C3617      C3618   1.410       .  A
C3617      C3622   1.405       .  A
C3618      C3619   1.394       .  A
C3618      H3627   1.083       .  S
C3619      C3620   1.397       .  A
C3619      H3628   1.084       .  S
C3620      C3626   1.405       .  A
C3620      C3621   1.416       .  A
C3621      C3623   1.399       .  A
C3621      C3622   1.407       .  A
C3622      H3629   1.084       .  S
C3623      C3624   1.396       .  A
C3623      H3630   1.084       .  S
C3624      C3625   1.410       .  A
C3624      H3631   1.083       .  S
C3625      C3626   1.403       .  A
C3626      H3632   1.084       .  S
C3633      C3634   1.406       .  A
C3633      C3638   1.411       .  A
C3634      C3635   1.393       .  A
C3634      H3643   1.084       .  S
C3635      C3636   1.399       .  A
C3635      H3644   1.084       .  S
C3636      C3642   1.403       .  A
C3636      C3637   1.414       .  A
C3637      C3639   1.406       .  A
C3637      C3638   1.416       .  A
C3638      H3645   1.084       .  S
C3639      C3640   1.406       .  A
C3639      H3646   1.083       .  S
C3640      C3641   1.409       .  A
C3640      H3647   1.083       .  S
C3641      C3642   1.409       .  A
C3642      H3648   1.084       .  S
