geometry optimzed in LAMMPS
_audit_creation_date              2020-12-01 
_audit_creation_method            'lammps2cif' 
_symmetry_space_group_name_H-M    'P1' 
_symmetry_Int_Tables_number       1 
_symmetry_cell_setting            triclinic 
loop_ 
_symmetry_equiv_pos_as_xyz 
  x,y,z 
_cell_length_a                    90.34578827 
_cell_length_b                    90.31802874303105 
_cell_length_c                    56.23950365690952 
_cell_angle_alpha                 89.93407063253002 
_cell_angle_beta                  90.07446503000455 
_cell_angle_gamma                 120.10219074335906 
loop_ 
_atom_site_label 
_atom_site_type_symbol 
_atom_site_fract_x 
_atom_site_fract_y 
_atom_site_fract_z 
_atom_site_charge 
Zr1        Zr  0.84321401  0.25572502  0.27935468     2.17500
O2          O  0.84415579  0.22951547  0.28615127    -0.51800
O3          O  0.81350867  0.23987372  0.29208509    -0.75000
O4          O  0.84968562  0.25247669  0.32053075    -0.81700
O5          O  0.83753846  0.24666644  0.21272899    -0.83500
O6          O  0.86320189  0.27856752  0.33844402    -0.79100
O7          O  0.83766528  0.23464772  0.24820052    -0.90800
O8          O  0.80094482  0.25593936  0.28679791    -0.76700
O9          O  0.83725311  0.27545677  0.29918424    -0.86200
O10         O  0.82838094  0.26333458  0.25128594    -0.85900
O11         O  0.87070919  0.27937546  0.29050581    -0.72700
O12         O  0.86235204  0.26807400  0.24631283    -0.84800
Zr13       Zr  0.86938411  0.31995846  0.24845983     2.26400
Zr14       Zr  0.86449870  0.29950724  0.30967137     2.06300
Zr15       Zr  0.84774383  0.27655590  0.21883827     2.10000
Zr16       Zr  0.82280169  0.28330210  0.27083553     1.78800
O17         O  0.86238917  0.27143653  0.18628128    -0.93600
O18         O  0.81309019  0.29027945  0.30734656    -0.41400
O19         O  0.84166854  0.29664123  0.23755909    -0.78000
O20         O  0.84981675  0.30745118  0.28131750    -0.96700
O21         O  0.88387136  0.31214327  0.27696548    -0.90000
O22         O  0.87517004  0.30004812  0.22909575    -0.92900
C23         C  0.80062421  0.24218169  0.29344003     1.00900
C24         C  0.83566842  0.23410382  0.22549654     1.13800
C25         C  0.85721863  0.26229428  0.33836886     1.04600
O26         O  0.84647515  0.30047824  0.34113397    -0.95000
O27         O  0.87361817  0.32992248  0.31557676    -0.90800
O28         O  0.87656371  0.34161131  0.27877805    -0.83900
C29         C  0.87722833  0.34262808  0.30159211     1.11200
O30         O  0.89854024  0.27108826  0.26272281    -0.97000
Zr31       Zr  0.88932535  0.29200052  0.25735613     1.88900
O32         O  0.90026816  0.33775684  0.24387823    -0.73600
O33         O  0.89005234  0.31135678  0.33453345    -0.52900
O34         O  0.91173223  0.29918840  0.28678648    -0.97600
O35         O  0.90081837  0.28684215  0.22111955    -0.54800
O36         O  0.91160930  0.32032500  0.24630642    -0.74200
C37         C  0.91288363  0.33498655  0.24349487     0.98200
O38         O  0.86326555  0.34264470  0.23850607    -0.63000
O39         O  0.82122327  0.26625456  0.19662376    -0.57800
O40         O  0.86869285  0.32391989  0.20514238    -0.94500
O41         O  0.85361979  0.29762681  0.18820612    -0.92900
O42         O  0.79953150  0.27279579  0.24207153    -0.93200
O43         O  0.81264788  0.30325279  0.26288114    -0.92000
C44         C  0.86193296  0.31401373  0.18700949     1.17000
H45         H  0.81793100  0.25343902  0.24599395     0.33000
H46         H  0.84730194  0.31572116  0.28818703     0.43800
H47         H  0.88227807  0.30502662  0.21524940     0.37300
H48         H  0.87668654  0.27570908  0.30103837     0.33800
H49         H  0.80083420  0.28631151  0.30458535     0.25600
H50         H  0.89719826  0.32342513  0.32948075     0.31600
H51         H  0.91456483  0.31060177  0.29282215     0.37500
H52         H  0.78907285  0.26892301  0.25175117     0.31900
H53         H  0.81916463  0.27603569  0.19633005     0.30800
H54         H  0.87275260  0.28262923  0.18315801     0.32500
H55         H  0.90408696  0.29693921  0.21087320     0.31500
H56         H  0.82094588  0.31400883  0.27092607     0.35400
H57         H  0.87277193  0.35063490  0.22807115     0.28200
H58         H  0.83581223  0.22333872  0.29900952     0.32400
H59         H  0.88824208  0.26070243  0.26861953     0.35300
H60         H  0.82428112  0.26525469  0.18003269     0.27900
H61         H  0.85306597  0.33723394  0.22806066     0.40700
H62         H  0.84643620  0.29287016  0.35384922     0.30800
H63         H  0.81303197  0.28224645  0.31939863     0.38400
H64         H  0.89079782  0.27734506  0.21310617     0.30300
H65         H  0.88601998  0.31201328  0.35065690     0.30300
H66         H  0.85551709  0.23316147  0.29322069     0.30600
Zr67       Zr  0.90437556  0.18858076  0.55190011     2.17500
O68         O  0.87777391  0.18892550  0.54596714    -0.51800
O69         O  0.88845877  0.15881293  0.53819013    -0.75000
O70         O  0.90132379  0.19735953  0.51202422    -0.81700
O71         O  0.89589613  0.18356425  0.61917342    -0.83500
O72         O  0.92680204  0.20843385  0.49276623    -0.79100
O73         O  0.88347044  0.18231202  0.58356715    -0.90800
O74         O  0.90580103  0.14745349  0.54050645    -0.76700
O75         O  0.92413562  0.18296745  0.53135781    -0.86200
O76         O  0.91225107  0.17365668  0.57936425    -0.85900
O77         O  0.92817246  0.21627286  0.54125944    -0.72700
O78         O  0.91690205  0.20768639  0.58510543    -0.84800
Zr79       Zr  0.96895879  0.21502774  0.58136794     2.26400
Zr80       Zr  0.94815613  0.21034166  0.52122463     2.06300
Zr81       Zr  0.92560032  0.19295216  0.61186399     2.10000
Zr82       Zr  0.93225692  0.16843915  0.55915928     1.78800
O83         O  0.92234835  0.20821614  0.64526705    -0.93600
O84         O  0.94005796  0.15825311  0.52386398    -0.41400
O85         O  0.94568757  0.18730296  0.59222557    -0.78000
O86         O  0.95642612  0.19536715  0.54860456    -0.96700
O87         O  0.96082425  0.22965590  0.55390682    -0.90000
O88         O  0.94916457  0.22047715  0.60186494    -0.92900
C89         C  0.89157656  0.14652131  0.53511569     1.08100
C90         C  0.88307871  0.18101244  0.60638526     1.13800
C91         C  0.91092506  0.20420891  0.49377264     1.04600
O92         O  0.95057336  0.19351829  0.48922435    -0.95000
O93         O  0.97870963  0.22038594  0.51501149    -0.90800
O94         O  0.99010592  0.22033817  0.55102017    -0.83900
C95         C  0.99117904  0.22230183  0.52835619     1.11200
O96         O  0.91844628  0.24199445  0.56823648    -0.97000
Zr97       Zr  0.94086534  0.23486938  0.57441626     1.88900
O98         O  0.98654893  0.24618295  0.58267618    -0.73600
O99         O  0.95956483  0.23649129  0.49773639    -0.52900
O100        O  0.94943244  0.25777608  0.54540094    -0.97600
O101        O  0.93761067  0.24713294  0.61127878    -0.54800
O102        O  0.96917666  0.25752107  0.58523387    -0.74200
C103        C  0.98397752  0.25887539  0.58470893     0.98200
O104        O  0.99272992  0.21250105  0.59726912    -0.63000
O105        O  0.91508588  0.16617837  0.63357217    -0.57800
O106        O  0.97325486  0.21234220  0.62366952    -0.94500
O107        O  0.94709265  0.19764915  0.64101623    -0.92900
O108        O  0.92063090  0.14508483  0.58791857    -0.93200
O109        O  0.95200939  0.15821669  0.56792230    -0.92000
C110        C  0.96345777  0.20518789  0.64168917     1.17000
H111        H  0.90239812  0.16312457  0.58460598     0.33000
H112        H  0.96450422  0.19271674  0.54138678     0.43800
H113        H  0.95423078  0.22741191  0.61584320     0.37300
H114        H  0.92467846  0.22252053  0.53101937     0.33800
H115        H  0.93358546  0.14561504  0.52521043     0.25600
H116        H  0.95141721  0.24065274  0.50025375     0.31600
H117        H  0.95120911  0.26780538  0.55480367     0.37500
H118        H  0.91016187  0.13576525  0.58046438     0.31900
H119        H  0.92435290  0.16339956  0.63223137     0.30800
H120        H  0.91871042  0.20003810  0.65870075     0.32500
H121        H  0.92639687  0.23837273  0.61770667     0.31500
H122        H  0.95968657  0.16609381  0.58035215     0.35400
H123        H  0.99332935  0.20378896  0.58731298     0.28200
H124        H  0.87201218  0.18135805  0.53220217     0.32400
H125        H  0.90917171  0.23191335  0.55999340     0.35300
H126        H  0.91526763  0.16930465  0.65048531     0.27900
H127        H  0.00318551  0.22344201  0.59333737     0.40700
H128        H  0.94398220  0.19442565  0.47579978     0.30800
H129        H  0.93450828  0.16077981  0.51051062     0.38400
H130        H  0.93592603  0.25672293  0.60636787     0.30300
H131        H  0.97002356  0.24487721  0.50629460     0.30300
H132        H  0.88115457  0.20061774  0.54044450     0.30600
Zr133      Zr  0.92974686  0.41841653  0.88334355     2.17500
O134        O  0.95744791  0.44389580  0.87589232    -0.51800
O135        O  0.91655669  0.43559037  0.87304742    -0.75000
O136        O  0.93841952  0.42129258  0.84168753    -0.81700
O137        O  0.93920426  0.42615872  0.95028286    -0.83500
O138        O  0.92241899  0.39573011  0.82305515    -0.79100
O139        O  0.94638917  0.43933834  0.91427145    -0.90800
O140        O  0.88820682  0.41977684  0.88108287    -0.76700
O141        O  0.90242797  0.39979912  0.86610149    -0.86200
O142        O  0.90951936  0.41120944  0.91460899    -0.85900
O143        O  0.93124495  0.39387063  0.86945779    -0.72700
O144        O  0.93771631  0.40480822  0.91357203    -0.84800
Zr145      Zr  0.89099132  0.35379471  0.91402322     2.26400
Zr146      Zr  0.90342501  0.37505678  0.85274697     2.06300
Zr147      Zr  0.91683570  0.39696280  0.94427757     2.10000
Zr148      Zr  0.88239639  0.39244114  0.89758337     1.78800
O149        O  0.93645800  0.39805122  0.97487065    -0.93600
O150        O  0.86152060  0.38331216  0.86545701    -0.41400
O151        O  0.88932077  0.37811406  0.92789169    -0.78000
O152        O  0.88273684  0.36747707  0.88403911    -0.96700
O153        O  0.91121938  0.36132735  0.88268086    -0.90000
O154        O  0.91828640  0.37254498  0.93109487    -0.92900
C155        C  0.90140273  0.43353635  0.87373540     1.00900
C156        C  0.94790404  0.43928343  0.93704247     1.13800
C157        C  0.93443495  0.41152935  0.82333883     1.04600
O158        O  0.88465063  0.37655781  0.82291208    -0.95000
O159        O  0.88049648  0.34529465  0.84723730    -0.90800
O160        O  0.87460672  0.33253304  0.88359198    -0.83900
C161        C  0.87248017  0.33217874  0.86093000     1.11200
O162        O  0.96784046  0.40051168  0.88896878    -0.97000
Zr163      Zr  0.93839064  0.38007210  0.89976108     1.88900
O164        O  0.90307168  0.33483412  0.91510795    -0.73600
O165        O  0.91283882  0.35950643  0.82722893    -0.52900
O166        O  0.94980654  0.37072195  0.86759539    -0.97600
O167        O  0.95786569  0.38499547  0.93270167    -0.54800
O168        O  0.93170309  0.35109186  0.90861517    -0.74200
C169        C  0.91809813  0.33676983  0.91274754     0.98200
O170        O  0.86281639  0.33244582  0.92858464    -0.63000
O171        O  0.90433011  0.40973945  0.96947217    -0.57800
O172        O  0.88674596  0.34966870  0.95737301    -0.94500
O173        O  0.90020714  0.37605585  0.97437708    -0.92900
O174        O  0.87386528  0.40664317  0.92678944    -0.93200
O175        O  0.85385982  0.37463303  0.91404039    -0.92000
C176        C  0.89074705  0.35973470  0.97550649     1.17000
H177        H  0.90989497  0.42132353  0.92102121     0.33000
H178        H  0.87135809  0.35961693  0.87835080     0.43800
H179        H  0.92083562  0.36715366  0.94405305     0.37300
H180        H  0.94020192  0.39699946  0.85790333     0.33800
H181        H  0.85333655  0.38696645  0.87043998     0.25600
H182        H  0.90416007  0.35453259  0.81443458     0.31600
H183        H  0.93984614  0.36365560  0.85724166     0.37500
H184        H  0.86630178  0.40975902  0.91801401     0.31900
H185        H  0.89185165  0.40162772  0.96880140     0.30800
H186        H  0.93391918  0.40297366  0.98894607     0.32500
H187        H  0.95248352  0.37417854  0.94186189     0.31500
H188        H  0.85421824  0.36489593  0.92155273     0.35400
H189        H  0.85457070  0.33327686  0.91784060     0.28200
H190        H  0.95546030  0.45029682  0.86317623     0.32400
H191        H  0.97011067  0.41143860  0.89623663     0.35300
H192        H  0.90768115  0.40864135  0.98586497     0.27900
H193        H  0.86170113  0.32119586  0.92499407     0.40700
H194        H  0.88120383  0.36646604  0.81259732     0.30800
H195        H  0.86782719  0.39097148  0.85200232     0.38400
H196        H  0.95683290  0.39327661  0.94307420     0.30300
H197        H  0.92331142  0.36828866  0.81913879     0.30300
H198        H  0.96464252  0.43974571  0.86852201     0.30600
Zr199      Zr  0.05270480  0.48156306  0.60759655     2.17500
O200        O  0.02499263  0.47945675  0.61402024    -0.51800
O201        O  0.06567562  0.51138169  0.61925361    -0.75000
O202        O  0.04288878  0.47481371  0.64862432    -0.81700
O203        O  0.04605686  0.48337495  0.54095616    -0.83500
O204        O  0.05655392  0.46271528  0.66732794    -0.79100
O205        O  0.03676717  0.48672211  0.57694526    -0.90800
O206        O  0.09437953  0.52398858  0.61450194    -0.76700
O207        O  0.07852396  0.48794286  0.62756825    -0.86200
O208        O  0.07499746  0.49672619  0.57940477    -0.85900
O209        O  0.04918606  0.45430962  0.61910755    -0.72700
O210        O  0.04623978  0.46258417  0.57441863    -0.84800
Zr211      Zr  0.09115295  0.45608142  0.57732039     2.26400
Zr212      Zr  0.07567603  0.46085498  0.63822761     2.06300
Zr213      Zr  0.06916596  0.47742413  0.54695924     2.10000
Zr214      Zr  0.10063069  0.50259194  0.59909105     1.78800
O215        O  0.05307857  0.46522505  0.51047995    -0.93600
O216        O  0.11787526  0.51397421  0.63495798    -0.41400
O217        O  0.09530977  0.48364049  0.56606150    -0.78000
O218        O  0.09830322  0.47583442  0.60991121    -0.96700
O219        O  0.06886161  0.44148012  0.60558507    -0.90000
O220        O  0.06538977  0.45014321  0.55769514    -0.92900
C221        C  0.08084693  0.52435796  0.62033929     1.00900
C222        C  0.03626820  0.48641114  0.55411230     1.13800
C223        C  0.04566202  0.46794340  0.66683993     1.04600
O224        O  0.09378002  0.47727312  0.67144885    -0.95000
O225        O  0.09744818  0.45239486  0.64442821    -0.90800
O226        O  0.10566136  0.44892080  0.60764904    -0.83900
C227        C  0.10643976  0.44869055  0.63043410     1.11200
O228        O  0.01358622  0.42930595  0.58861486    -0.97000
Zr229      Zr  0.04316191  0.43576020  0.58591811     1.88900
O230        O  0.07804752  0.42510869  0.57354029    -0.73600
O231        O  0.06164482  0.43413030  0.66054909    -0.52900
O232        O  0.02825742  0.41505846  0.61748143    -0.97600
O233        O  0.02619499  0.42117210  0.55083835    -0.54800
O234        O  0.04919052  0.41325259  0.57645081    -0.74200
C235        C  0.06273793  0.41226011  0.57376786     0.98200
O236        O  0.11974029  0.46291760  0.56477722    -0.63000
O237        O  0.08524800  0.50529343  0.52779365    -0.57800
O238        O  0.09676783  0.45658272  0.53470974    -0.94500
O239        O  0.08471547  0.47080014  0.51761322    -0.92900
O240        O  0.11257579  0.52451841  0.56828503    -0.93200
O241        O  0.13114888  0.51402284  0.59311727    -0.92000
C242        C  0.09330263  0.46299193  0.51654169     1.17000
H243        H  0.07532231  0.50706655  0.57410226     0.33000
H244        H  0.10918060  0.47849435  0.61665200     0.43800
H245        H  0.06331675  0.44299532  0.54385552     0.37300
H246        H  0.03960038  0.44830310  0.62971334     0.33800
H247        H  0.10997149  0.51418739  0.64695631     0.25600
H248        H  0.04936071  0.43065160  0.66056378     0.31600
H249        H  0.03541249  0.40983211  0.62072908     0.37500
H250        H  0.10883224  0.53278896  0.57241054     0.31900
H251        H  0.09203924  0.50373287  0.51527807     0.30800
H252        H  0.04599480  0.45282742  0.51385837     0.32500
H253        H  0.03408227  0.41988697  0.53995868     0.31500
H254        H  0.13225681  0.50383630  0.58998892     0.35400
H255        H  0.12755134  0.47004837  0.57764980     0.28200
H256        H  0.02654205  0.48709935  0.62757153     0.32400
H257        H  0.01371239  0.43969117  0.58263041     0.35300
H258        H  0.07654081  0.50668681  0.51894036     0.27900
H259        H  0.11975231  0.45196561  0.56558745     0.40700
H260        H  0.09196707  0.48716245  0.67307326     0.30800
H261        H  0.12005470  0.50483971  0.64052631     0.38400
H262        H  0.02404716  0.42972191  0.54295188     0.30300
H263        H  0.06231071  0.42567141  0.65010012     0.30300
H264        H  0.01735048  0.46770919  0.61999249     0.30600
Zr265      Zr  0.07257989  0.27346880  0.94002892     2.17500
O266        O  0.09938985  0.30006899  0.94722365    -0.51800
O267        O  0.08938850  0.26063351  0.95302542    -0.75000
O268        O  0.07472657  0.28575475  0.97977096    -0.81700
O269        O  0.08141809  0.27479195  0.87298742    -0.83500
O270        O  0.04876885  0.27296511  0.99790124    -0.79100
O271        O  0.09303344  0.28818719  0.90794602    -0.90800
O272        O  0.07166788  0.23186802  0.95426060    -0.76700
O273        O  0.05248612  0.24884387  0.96182700    -0.86200
O274        O  0.06488935  0.24951422  0.91465734    -0.85900
O275        O  0.04898431  0.27796535  0.94822257    -0.72700
O276        O  0.06043978  0.27826428  0.90484876    -0.84800
Zr277      Zr  0.00813965  0.23383277  0.90952609     2.26400
Zr278      Zr  0.02847858  0.25273648  0.96930095     2.06300
Zr279      Zr  0.05184950  0.25358068  0.88019297     2.10000
Zr280      Zr  0.04462960  0.22509902  0.93612090     1.78800
O281        O  0.05803487  0.26742755  0.84139350    -0.93600
O282        O  0.03658274  0.20897399  0.97319850    -0.41400
O283        O  0.03139052  0.22872221  0.90112668    -0.78000
O284        O  0.02041276  0.22835535  0.94425573    -0.96700
O285        O  0.01613539  0.25776955  0.93476314    -0.90000
O286        O  0.02850882  0.25831434  0.88791408    -0.92900
C287        C  0.08620279  0.24539669  0.95761694     1.00900
C288        C  0.09381369  0.28618078  0.88541152     1.13800
C289        C  0.06484877  0.28401910  0.99735617     1.04600
O290        O  0.02608405  0.23573211  0.00425575    -0.95000
O291        O  0.99807208  0.23250931  0.97572184    -0.90800
O292        O  0.98627649  0.22037638  0.94016784    -0.83900
C293        C  0.98539354  0.22192161  0.96277854     1.11200
O294        O  0.05630444  0.31270335  0.91744646    -0.97000
Zr295      Zr  0.03665840  0.28211384  0.91317614     1.88900
O296        O  0.99082241  0.24718656  0.90178164    -0.73600
O297        O  0.01613495  0.26829693  0.98827397    -0.52900
O298        O  0.02819259  0.29785432  0.93970494    -0.97600
O299        O  0.04470909  0.29689180  0.87503766    -0.54800
O300        O  0.00882158  0.27587769  0.89912051    -0.74200
C301        C  0.99392372  0.26252308  0.89797086     0.98200
O302        O  0.98592254  0.20527190  0.89745297    -0.63000
O303        O  0.06173215  0.23418957  0.86762219    -0.57800
O304        O  0.00376427  0.22680164  0.86725115    -0.94500
O305        O  0.03002393  0.23739124  0.85042384    -0.92900
O306        O  0.05749350  0.21170444  0.91290272    -0.93200
O307        O  0.02475759  0.19506862  0.92746131    -0.92000
C308        C  0.01359623  0.22923962  0.84935891     1.17000
H309        H  0.07478162  0.24866758  0.91032056     0.33000
H310        H  0.01212412  0.21796916  0.95208638     0.43800
H311        H  0.02376301  0.25985146  0.87338823     0.37300
H312        H  0.05249829  0.28813313  0.95757215     0.33800
H313        H  0.04377448  0.20356041  0.97385307     0.25600
H314        H  0.02441579  0.28051231  0.98511741     0.31600
H315        H  0.01635305  0.28946094  0.94454798     0.37500
H316        H  0.05904662  0.20422580  0.92431952     0.31900
H317        H  0.05163023  0.22441947  0.86016299     0.30800
H318        H  0.06041930  0.26005455  0.83093233     0.32500
H319        H  0.03386450  0.29237877  0.86606564     0.31500
H320        H  0.01673465  0.19523232  0.91558483     0.35400
H321        H  0.98552554  0.19749944  0.91017573     0.28200
H322        H  0.10467199  0.29786601  0.96122617     0.32400
H323        H  0.06704164  0.31356902  0.92334037     0.35300
H324        H  0.06962188  0.24015062  0.85423785     0.27900
H325        H  0.97500817  0.20529863  0.89889448     0.40700
H326        H  0.01742837  0.23628424  0.01441172     0.30800
H327        H  0.04130091  0.21779992  0.98581484     0.38400
H328        H  0.05105274  0.29210541  0.86677361     0.30300
H329        H  0.00605927  0.26580486  0.97840922     0.30300
H330        H  0.09621666  0.30853808  0.95263878     0.30600
Zr331      Zr  0.13767945  0.40109741  0.21489220     2.17500
O332        O  0.13585586  0.37356740  0.20782182    -0.51800
O333        O  0.16815811  0.41533411  0.20573712    -0.75000
O334        O  0.13254556  0.39205629  0.17324069    -0.81700
O335        O  0.13984407  0.39517676  0.28177526    -0.83500
O336        O  0.12025195  0.40534010  0.15410743    -0.79100
O337        O  0.14343197  0.38575696  0.24600983    -0.90800
O338        O  0.18022448  0.44356869  0.21445490    -0.76700
O339        O  0.14417637  0.42725998  0.19570501    -0.86200
O340        O  0.15123949  0.42293246  0.24415812    -0.85900
O341        O  0.11044886  0.39697420  0.20191354    -0.72700
O342        O  0.11721408  0.39331393  0.24665368    -0.84800
Zr343      Zr  0.11002505  0.43790148  0.24425909     2.26400
Zr344      Zr  0.11707457  0.42360306  0.18336374     2.06300
Zr345      Zr  0.13082643  0.41581499  0.27519138     2.10000
Zr346      Zr  0.15731027  0.44891797  0.22533037     1.78800
O347        O  0.11711113  0.39838570  0.31018237    -0.93600
O348        O  0.17003589  0.46685336  0.19039237    -0.41400
O349        O  0.13728389  0.44227631  0.25716043    -0.78000
O350        O  0.13064681  0.44589172  0.21256682    -0.96700
O351        O  0.09673801  0.41621530  0.21479399    -0.90000
O352        O  0.10367353  0.41177897  0.26318035    -0.92900
C353        C  0.18114449  0.43050150  0.20761089     1.00900
C354        C  0.14353773  0.38579091  0.26888607     1.13800
C355        C  0.12583553  0.39472848  0.15472033     1.04600
O356        O  0.13336717  0.44143228  0.14986741    -0.95000
O357        O  0.10814304  0.44485202  0.17685115    -0.90800
O358        O  0.10263317  0.45181544  0.21340623    -0.83900
C359        C  0.10322278  0.45295035  0.19063702     1.11200
O360        O  0.08354474  0.36045055  0.23294723    -0.97000
Zr361      Zr  0.09053622  0.39022452  0.23369846     1.88900
O362        O  0.07908740  0.42481397  0.24712454    -0.73600
O363        O  0.08993116  0.40885642  0.16212833    -0.52900
O364        O  0.07114647  0.37513183  0.20086438    -0.97600
O365        O  0.07408659  0.37375588  0.26809283    -0.54800
O366        O  0.06764687  0.39646564  0.23918797    -0.74200
C367        C  0.06639000  0.40966181  0.24394284     0.98200
O368        O  0.11633672  0.46628939  0.25694628    -0.63000
O369        O  0.15749376  0.43201503  0.29708348    -0.57800
O370        O  0.11022441  0.44316919  0.28710771    -0.94500
O371        O  0.12472167  0.43150107  0.30445547    -0.92900
O372        O  0.17897640  0.46274175  0.25612613    -0.93200
O373        O  0.16555593  0.47860336  0.23324672    -0.92000
C374        C  0.11688464  0.44001144  0.30532166     1.17000
H375        H  0.16144869  0.42339525  0.25026770     0.33000
H376        H  0.13318048  0.45675395  0.20587824     0.43800
H377        H  0.09614714  0.40940168  0.27666473     0.37300
H378        H  0.10501825  0.38757130  0.19088617     0.33800
H379        H  0.17334274  0.46016836  0.17996295     0.25600
H380        H  0.09270128  0.41341420  0.14572382     0.31600
H381        H  0.05964250  0.36900566  0.20820554     0.37500
H382        H  0.18190295  0.45402112  0.26119298     0.31900
H383        H  0.15989649  0.44397714  0.29661812     0.30800
H384        H  0.10517329  0.39047770  0.30523952     0.32500
H385        H  0.07071635  0.38117663  0.27667135     0.31500
H386        H  0.15512253  0.47929565  0.23020388     0.35400
H387        H  0.12383078  0.47421006  0.24442743     0.28200
H388        H  0.14414354  0.37551266  0.19499526     0.32400
H389        H  0.09119985  0.36007626  0.22067410     0.35300
H390        H  0.15435427  0.42844953  0.31384083     0.27900
H391        H  0.10540271  0.46626061  0.25535990     0.40700
H392        H  0.14452529  0.44186176  0.15073425     0.30800
H393        H  0.16035594  0.46677946  0.18202344     0.38400
H394        H  0.08255931  0.37318456  0.27862900     0.30300
H395        H  0.08732889  0.39685657  0.16072982     0.30300
H396        H  0.12442644  0.36612559  0.20072535     0.30600
Zr397      Zr  0.14060277  0.74976279  0.71966100     2.17500
O398        O  0.14138449  0.77546420  0.70438016    -0.51800
O399        O  0.17062150  0.76449181  0.70872774    -0.75000
O400        O  0.14807911  0.77222130  0.74970422    -0.81700
O401        O  0.11716497  0.72513956  0.66289415    -0.83500
O402        O  0.14649621  0.76080670  0.78617847    -0.79100
O403        O  0.12934277  0.75120082  0.68075221    -0.90800
O404        O  0.18274406  0.74916631  0.72135351    -0.76700
O405        O  0.15451426  0.74205323  0.74897288    -0.86200
O406        O  0.14590843  0.72888957  0.70140590    -0.85900
O407        O  0.12080927  0.73882959  0.75234866    -0.72700
O408        O  0.11330238  0.72629948  0.70855954    -0.84800
Zr409      Zr  0.11208342  0.68610951  0.75387749     2.26400
Zr410      Zr  0.13476988  0.73042567  0.78113917     2.06300
Zr411      Zr  0.11829737  0.70512726  0.69118994     2.10000
Zr412      Zr  0.15932954  0.72090225  0.73143971     1.78800
O413        O  0.09079978  0.69000314  0.67088138    -0.93600
O414        O  0.18152456  0.72883647  0.76157412    -0.41400
O415        O  0.13189168  0.69730962  0.72113895    -0.78000
O416        O  0.14011294  0.70910096  0.76466442    -0.96700
O417        O  0.10703404  0.70718460  0.77109549    -0.90000
O418        O  0.09862285  0.69373290  0.72362165    -0.92900
C419        C  0.18364642  0.76270556  0.71256862     1.00900
C420        C  0.12135223  0.74103537  0.66335372     1.13800
C421        C  0.14960174  0.77338982  0.77248772     1.04600
O422        O  0.16146530  0.74041723  0.80287530    -0.95000
O423        O  0.12920063  0.71045176  0.81283685    -0.90800
O424        O  0.11532641  0.68381533  0.79688547    -0.83900
C425        C  0.12196106  0.69416051  0.81454460     1.11200
O426        O  0.08725290  0.73693685  0.72828649    -0.97000
Zr427      Zr  0.09380261  0.71500037  0.74085403     1.88900
O428        O  0.08088093  0.66957297  0.75900131    -0.73600
O429        O  0.11933430  0.73485995  0.81327454    -0.52900
O430        O  0.08153730  0.72260480  0.77393812    -0.97600
O431        O  0.07176555  0.70447806  0.71011181    -0.54800
O432        O  0.07114031  0.68830444  0.75612777    -0.74200
C433        C  0.06891411  0.67333329  0.75979604     0.98200
O434        O  0.11235845  0.66019700  0.76551062    -0.63000
O435        O  0.13328055  0.70305298  0.65649285    -0.57800
O436        O  0.10876065  0.66472503  0.72519051    -0.94500
O437        O  0.11105784  0.67521480  0.68778536    -0.92900
O438        O  0.17237504  0.71610405  0.69657083    -0.93200
O439        O  0.16490276  0.69728533  0.73616064    -0.92000
C440        C  0.10848934  0.66321590  0.70248935     1.17000
H441        H  0.15302715  0.73351116  0.68746690     0.33000
H442        H  0.14528829  0.70524169  0.77642530     0.43800
H443        H  0.08813478  0.68391542  0.71821672     0.37300
H444        H  0.11860296  0.74745848  0.75873030     0.33800
H445        H  0.17832528  0.71829041  0.77074461     0.25600
H446        H  0.12815822  0.74154005  0.82538292     0.31600
H447        H  0.06901027  0.71586702  0.77135578     0.37500
H448        H  0.17582768  0.72618097  0.68621045     0.31900
H449        H  0.12440110  0.69811648  0.64393492     0.30800
H450        H  0.09240293  0.68334821  0.65819593     0.32500
H451        H  0.06654032  0.69187268  0.71015011     0.31500
H452        H  0.15492888  0.68728143  0.72884080     0.35400
H453        H  0.12303153  0.66404984  0.77469714     0.28200
H454        H  0.15285254  0.78516346  0.70835912     0.32400
H455        H  0.07481683  0.73197209  0.73089660     0.35300
H456        H  0.14095534  0.71500837  0.65135904     0.27900
H457        H  0.10296018  0.65429607  0.77716348     0.40700
H458        H  0.15841367  0.74027065  0.81981036     0.30800
H459        H  0.19185732  0.73106907  0.75255236     0.38400
H460        H  0.07817808  0.70818582  0.69495500     0.30300
H461        H  0.11593948  0.74292637  0.80680631     0.30300
H462        H  0.13327176  0.77711259  0.71431372     0.30600
Zr463      Zr  0.07332154  0.81660160  0.45324536     2.17500
O464        O  0.09637341  0.81189718  0.46651278    -0.51800
O465        O  0.09081499  0.84668303  0.46369621    -0.75000
O466        O  0.09477914  0.82303122  0.42243123    -0.81700
O467        O  0.04933243  0.79487332  0.51011691    -0.83500
O468        O  0.08356032  0.82386605  0.38672870    -0.79100
O469        O  0.07594572  0.80924959  0.49390645    -0.90800
O470        O  0.07571352  0.86001970  0.45606926    -0.76700
O471        O  0.06680802  0.83164471  0.42428580    -0.86200
O472        O  0.05421250  0.82396153  0.47205857    -0.85900
O473        O  0.06067479  0.79659289  0.42106479    -0.72700
O474        O  0.04881192  0.79000220  0.46472460    -0.84800
Zr475      Zr  0.00973019  0.79256675  0.42023478     2.26400
Zr476      Zr  0.05346953  0.81171079  0.39255704     2.06300
Zr477      Zr  0.02945075  0.79740760  0.48276591     2.10000
Zr478      Zr  0.04733423  0.83849771  0.44256616     1.78800
O479        O  0.01542011  0.77415587  0.51135163    -0.93600
O480        O  0.05698270  0.86039217  0.41175700    -0.41400
O481        O  0.02245524  0.81201808  0.45316599    -0.78000
O482        O  0.03410364  0.81953888  0.40938630    -0.96700
O483        O  0.02892600  0.78502375  0.40265226    -0.90000
O484        O  0.01621775  0.77791532  0.45035594    -0.92900
C485        C  0.08929534  0.86007302  0.46298850     1.00900
C486        C  0.06558822  0.80058627  0.51071703     1.13800
C487        C  0.09585994  0.82556423  0.39984420     1.04600
O488        O  0.06408310  0.83659653  0.36659956    -0.95000
O489        O  0.03318644  0.80596171  0.36141522    -0.90800
O490        O  0.00637215  0.79308652  0.37665869    -0.83900
C491        C  0.01697941  0.79904338  0.35911707     1.11200
O492        O  0.05292270  0.75779481  0.44217537    -0.97000
Zr493      Zr  0.03548893  0.77057684  0.43250825     1.88900
O494        O  0.99099787  0.76187402  0.41447245    -0.73600
O495        O  0.05761475  0.79469922  0.36248848    -0.52900
O496        O  0.04231734  0.75846182  0.39845579    -0.97600
O497        O  0.02488403  0.74943836  0.46442824    -0.54800
O498        O  0.00753195  0.74953806  0.41780807    -0.74200
C499        C  0.99324685  0.74891401  0.41398967     0.98200
O500        O  0.98898619  0.80138372  0.40971716    -0.63000
O501        O  0.03114344  0.81773108  0.51260875    -0.57800
O502        O  0.98812818  0.78695687  0.44982047    -0.94500
O503        O  0.99909598  0.78876394  0.48684305    -0.92900
O504        O  0.04220101  0.85083490  0.47788512    -0.93200
O505        O  0.02722088  0.84871666  0.43695797    -0.92000
C506        C  0.98682096  0.78612541  0.47256934     1.17000
H507        H  0.05945218  0.83106216  0.48587723     0.33000
H508        H  0.03081770  0.82517116  0.39756556     0.43800
H509        H  0.00601487  0.76786005  0.45596233     0.37300
H510        H  0.06873335  0.79368213  0.41443510     0.33800
H511        H  0.06480933  0.87126061  0.41995151     0.25600
H512        H  0.06283976  0.80258462  0.34884466     0.31600
H513        H  0.03335540  0.74621431  0.39835486     0.37500
H514        H  0.03079222  0.84194963  0.48361016     0.31900
H515        H  0.02058630  0.81129059  0.52214641     0.30800
H516        H  0.00843915  0.76382724  0.50158953     0.32500
H517        H  0.01227301  0.74406063  0.46389469     0.31500
H518        H  0.02128360  0.84346282  0.42184122     0.35400
H519        H  0.99085992  0.81029621  0.42151238     0.28200
H520        H  0.10715122  0.82271471  0.46332585     0.32400
H521        H  0.06441144  0.76765910  0.44556813     0.35300
H522        H  0.04045629  0.81925655  0.52343462     0.27900
H523        H  0.99290159  0.80782496  0.39460830     0.40700
H524        H  0.05458931  0.83904342  0.36527536     0.30800
H525        H  0.06456537  0.85819395  0.40150458     0.38400
H526        H  0.02827992  0.75626136  0.47926189     0.30300
H527        H  0.06684975  0.79288756  0.36867804     0.30300
H528        H  0.09638340  0.80346954  0.45527190     0.30600
Zr529      Zr  0.84649916  0.60629622  0.78145295     2.17500
O530        O  0.84841897  0.63273840  0.79568221    -0.51800
O531        O  0.81653648  0.59298476  0.79328763    -0.75000
O532        O  0.83944722  0.62135291  0.75067958    -0.81700
O533        O  0.87018044  0.60388505  0.83691198    -0.83500
O534        O  0.83931547  0.61014576  0.71455788    -0.79100
O535        O  0.85810603  0.61837127  0.82055564    -0.90800
O536        O  0.80362013  0.56492880  0.78325386    -0.76700
O537        O  0.83150201  0.58469144  0.75241929    -0.86200
O538        O  0.83990671  0.57973109  0.79999597    -0.85900
O539        O  0.86589040  0.61398464  0.74846733    -0.72700
O540        O  0.87327573  0.60830318  0.79179000    -0.84800
Zr541      Zr  0.87162534  0.56809366  0.74687532     2.26400
Zr542      Zr  0.85091415  0.59159115  0.71991310     2.06300
Zr543      Zr  0.86675750  0.58147851  0.80937828     2.10000
Zr544      Zr  0.82541166  0.55841534  0.77036230     1.78800
O545        O  0.89106024  0.59017301  0.83592274    -0.93600
O546        O  0.80272301  0.54509102  0.74078526    -0.41400
O547        O  0.85209067  0.56006588  0.77978819    -0.78000
O548        O  0.84420564  0.56469739  0.73691141    -0.96700
O549        O  0.87808617  0.59456802  0.72919020    -0.90000
O550        O  0.88608641  0.58919195  0.77677518    -0.92900
C551        C  0.80323169  0.57806076  0.79113018     1.00900
C552        C  0.86629113  0.61579248  0.83729932     1.13800
C553        C  0.83711475  0.62031172  0.72796558     1.04600
O554        O  0.82507611  0.57569204  0.69618396    -0.95000
O555        O  0.85626223  0.57692030  0.68817359    -0.90800
O556        O  0.87132663  0.56524914  0.70363970    -0.83900
C557        C  0.86449984  0.56885764  0.68612297     1.11200
O558        O  0.90315222  0.64556758  0.76890673    -0.97000
Zr559      Zr  0.89238531  0.61562393  0.75899392     1.88900
O560        O  0.90254584  0.58056558  0.74202396    -0.73600
O561        O  0.86676447  0.61297198  0.68948108    -0.52900
O562        O  0.90347839  0.63393322  0.72403589    -0.97600
O563        O  0.91518685  0.62789030  0.78860524    -0.54800
O564        O  0.91389927  0.60932979  0.74488206    -0.74200
C565        C  0.91524297  0.59599470  0.74169491     0.98200
O566        O  0.86306838  0.53892614  0.73494167    -0.63000
O567        O  0.84729823  0.56265840  0.83992129    -0.57800
O568        O  0.87823041  0.55184226  0.77459416    -0.94500
O569        O  0.87607666  0.55996995  0.81206352    -0.92900
O570        O  0.81564722  0.54113076  0.80636433    -0.93200
O571        O  0.81360600  0.52795542  0.76322940    -0.92000
C572        C  0.87926432  0.55098109  0.79724838     1.17000
H573        H  0.83297490  0.57760451  0.81409447     0.33000
H574        H  0.83859340  0.55570608  0.72519817     0.43800
H575        H  0.89633333  0.58941702  0.78219743     0.37300
H576        H  0.86845852  0.62492160  0.74198196     0.33800
H577        H  0.79193323  0.54077386  0.74983509     0.25600
H578        H  0.87721931  0.61225801  0.68680690     0.31600
H579        H  0.89494395  0.63741429  0.72027494     0.37500
H580        H  0.80392088  0.53904021  0.80900102     0.31900
H581        H  0.85262982  0.55607961  0.84579714     0.30800
H582        H  0.90120797  0.59764651  0.82610822     0.32500
H583        H  0.91996173  0.62013814  0.78917315     0.31500
H584        H  0.82247898  0.52726277  0.75378480     0.35400
H585        H  0.85336607  0.53543930  0.72381848     0.28200
H586        H  0.83723500  0.63176264  0.79204273     0.32400
H587        H  0.89611596  0.64524546  0.78259934     0.35300
H588        H  0.84858708  0.57037319  0.85324118     0.27900
H589        H  0.87256302  0.53992856  0.72499079     0.40700
H590        H  0.82733864  0.58248214  0.68142588     0.30800
H591        H  0.80359443  0.55475434  0.73135858     0.38400
H592        H  0.90919087  0.62603437  0.80399192     0.30300
H593        H  0.85996361  0.60828859  0.67476170     0.30300
H594        H  0.85672529  0.64189162  0.78505460     0.30600
Zr595      Zr  0.90650472  0.73384191  0.05641892     2.17500
O596        O  0.88084242  0.70924755  0.04042519    -0.51800
O597        O  0.89140759  0.74842489  0.04317918    -0.75000
O598        O  0.88430511  0.71872990  0.08688995    -0.81700
O599        O  0.93214589  0.73231458  0.00287635    -0.83500
O600        O  0.89469923  0.73369149  0.12110264    -0.79100
O601        O  0.90527983  0.72129921  0.01775760    -0.90800
O602        O  0.90716224  0.77674820  0.05144076    -0.76700
O603        O  0.91370147  0.75670491  0.08343489    -0.86200
O604        O  0.92749518  0.75935443  0.03692531    -0.85900
O605        O  0.91729552  0.72628004  0.09071521    -0.72700
O606        O  0.93016398  0.72952966  0.04751121    -0.84800
Zr607      Zr  0.97007466  0.77052606  0.09168792     2.26400
Zr608      Zr  0.92527332  0.74978671  0.11708536     2.06300
Zr609      Zr  0.95147184  0.75548874  0.02921809     2.10000
Zr610      Zr  0.93518687  0.78194331  0.06468298     1.78800
O611        O  0.96739845  0.74626807  0.00427313    -0.93600
O612        O  0.92928261  0.79747314  0.09508811    -0.41400
O613        O  0.95926523  0.77817340  0.05735510    -0.78000
O614        O  0.94689397  0.77584010  0.09943283    -0.96700
O615        O  0.94859992  0.74495766  0.10999601    -0.90000
O616        O  0.96265384  0.74830607  0.06307912    -0.92900
C617        C  0.89353173  0.76359090  0.04363309     1.00900
C618        C  0.91586932  0.72205986  0.00192276     1.13800
C619        C  0.88268298  0.72189310  0.10876539     1.04600
O620        O  0.91678549  0.76654090  0.14146035    -0.95000
O621        O  0.94502428  0.76326236  0.14908613    -0.90800
O622        O  0.97214429  0.77517029  0.13504312    -0.83900
C623        C  0.96122861  0.77113700  0.15207653     1.11200
O624        O  0.91787542  0.69337142  0.07872628    -0.97000
Zr625      Zr  0.94128765  0.72281135  0.08171453     1.88900
O626        O  0.98721062  0.75661812  0.09759843    -0.73600
O627        O  0.91721621  0.72782620  0.14747817    -0.52900
O628        O  0.93654998  0.70407324  0.11552633    -0.97600
O629        O  0.94917139  0.70840036  0.05193387    -0.54800
O630        O  0.96884936  0.72802545  0.09531293    -0.74200
C631        C  0.98383177  0.74097947  0.09839969     0.98200
O632        O  0.99343315  0.79702399  0.10804180    -0.63000
O633        O  0.95037640  0.77166014  0.99526106    -0.57800
O634        O  0.99154190  0.78786505  0.06223509    -0.94500
O635        O  0.98167774  0.77738182  0.02525638    -0.92900
O636        O  0.94251811  0.79724703  0.02690829    -0.93200
O637        O  0.95474408  0.81274516  0.06546821    -0.92000
C638        C  0.99332190  0.78791178  0.03958048     1.17000
H639        H  0.92299844  0.76124383  0.02242532     0.33000
H640        H  0.95061119  0.78514312  0.11061957     0.43800
H641        H  0.97241761  0.74747248  0.05804726     0.37300
H642        H  0.90871890  0.71575283  0.09797178     0.33800
H643        H  0.92211808  0.80140559  0.08703703     0.25600
H644        H  0.92742415  0.72658070  0.14944539     0.31600
H645        H  0.94077147  0.71176610  0.12946743     0.37500
H646        H  0.93143622  0.79389148  0.01914038     0.31900
H647        H  0.95873718  0.78373507  0.99906363     0.30800
H648        H  0.97395022  0.74325829  0.01544626     0.32500
H649        H  0.96032126  0.71735528  0.04557661     0.31500
H650        H  0.96315101  0.81448930  0.07803232     0.35400
H651        H  0.00404479  0.79678643  0.10443869     0.28200
H652        H  0.87121232  0.71100612  0.04474657     0.32400
H653        H  0.91133125  0.69328713  0.06454403     0.35300
H654        H  0.95578140  0.76872436  0.98218233     0.27900
H655        H  0.99403820  0.80637464  0.09811281     0.40700
H656        H  0.91091573  0.75915281  0.15534555     0.30800
H657        H  0.92138974  0.78853017  0.10626922     0.38400
H658        H  0.94102376  0.70583911  0.03867898     0.30300
H659        H  0.91661767  0.73329648  0.16241206     0.30300
H660        H  0.87913711  0.69929878  0.04998562     0.30600
Zr661      Zr  0.05753470  0.58788624  0.11398851     2.17500
O662        O  0.03233304  0.56160457  0.12736400    -0.51800
O663        O  0.07258089  0.57264963  0.12361120    -0.75000
O664        O  0.04348919  0.56683470  0.08203937    -0.81700
O665        O  0.05638498  0.61029231  0.17133254    -0.83500
O666        O  0.05368220  0.57990757  0.04654666    -0.79100
O667        O  0.04510339  0.58433576  0.15325162    -0.90800
O668        O  0.10088767  0.58978364  0.11639758    -0.76700
O669        O  0.07994252  0.59706957  0.08575836    -0.86200
O670        O  0.08306335  0.60807241  0.13422846    -0.85900
O671        O  0.04907752  0.60009220  0.08252191    -0.72700
O672        O  0.05331912  0.61084781  0.12664168    -0.84800
Zr673      Zr  0.09306410  0.65336874  0.08518697     2.26400
Zr674      Zr  0.07219643  0.60992125  0.05468477     2.06300
Zr675      Zr  0.07913165  0.63142687  0.14599189     2.10000
Zr676      Zr  0.10525257  0.61773362  0.10547291     1.78800
O677        O  0.06847853  0.64588067  0.17134799    -0.93600
O678        O  0.12041717  0.61086275  0.07565316    -0.41400
O679        O  0.10139793  0.64111565  0.11693613    -0.78000
O680        O  0.09825520  0.63073315  0.07323633    -0.96700
O681        O  0.06743414  0.63270740  0.06612125    -0.90000
O682        O  0.07122798  0.64409949  0.11467660    -0.92900
C683        C  0.08795971  0.57543486  0.12258249     1.00900
C684        C  0.04598469  0.59403551  0.17051486     1.13800
C685        C  0.04425864  0.56666591  0.05919347     1.04600
O686        O  0.09063533  0.60181876  0.03371768    -0.95000
O687        O  0.08559396  0.63189603  0.02488608    -0.90800
O688        O  0.09833551  0.65808734  0.04235377    -0.83900
C689        C  0.09428004  0.64826221  0.02402370     1.11200
O690        O  0.01566644  0.60319262  0.10317396    -0.97000
Zr691      Zr  0.04569022  0.62349044  0.09535471     1.88900
O692        O  0.07852770  0.67010663  0.08050554    -0.73600
O693        O  0.05277366  0.60322650  0.02110325    -0.52900
O694        O  0.02863203  0.61710227  0.05927199    -0.97600
O695        O  0.03220724  0.63094178  0.12705618    -0.54800
O696        O  0.05009230  0.65090235  0.08280668    -0.74200
C697        C  0.06268102  0.66605279  0.07960243     0.98200
O698        O  0.12098363  0.67575690  0.07121362    -0.63000
O699        O  0.09510583  0.62863848  0.17901199    -0.57800
O700        O  0.10869872  0.67446289  0.11590441    -0.94500
O701        O  0.10186584  0.66127495  0.15195020    -0.92900
O702        O  0.12021748  0.62345778  0.14338031    -0.93200
O703        O  0.13552433  0.63877889  0.10138061    -0.92000
C704        C  0.11043655  0.67451427  0.13858639     1.17000
H705        H  0.08526814  0.60290118  0.14782775     0.33000
H706        H  0.10751177  0.63515520  0.06179707     0.43800
H707        H  0.07020348  0.65350096  0.12094327     0.37300
H708        H  0.03840779  0.59168012  0.07537807     0.33800
H709        H  0.12728384  0.60707998  0.08485852     0.25600
H710        H  0.05199622  0.61365685  0.01848624     0.31600
H711        H  0.02299537  0.62406211  0.06048316     0.37500
H712        H  0.12233593  0.63491539  0.14813649     0.31900
H713        H  0.10519980  0.64018161  0.18116077     0.30800
H714        H  0.06990282  0.64284638  0.18778330     0.32500
H715        H  0.03736864  0.64352464  0.12613606     0.31500
H716        H  0.13637819  0.64982106  0.10560446     0.35400
H717        H  0.12089758  0.68661286  0.07305810     0.28200
H718        H  0.03465411  0.55223965  0.12367030     0.32400
H719        H  0.01529352  0.59221556  0.10623849     0.35300
H720        H  0.08796128  0.62693623  0.19321917     0.27900
H721        H  0.12936033  0.67634063  0.08310010     0.40700
H722        H  0.10080945  0.61275240  0.02901587     0.30800
H723        H  0.11142995  0.60028171  0.06799016     0.38400
H724        H  0.03687971  0.62901031  0.14192617     0.30300
H725        H  0.05915974  0.60263160  0.00718096     0.30300
H726        H  0.02289663  0.55979079  0.11656863     0.30600
Zr727      Zr  0.92466069  0.52473238  0.38149358     2.17500
O728        O  0.95171571  0.52801124  0.36755048    -0.51800
O729        O  0.91153474  0.49450594  0.37145639    -0.75000
O730        O  0.93907126  0.51727625  0.41217292    -0.81700
O731        O  0.92120920  0.54551672  0.32383258    -0.83500
O732        O  0.92763899  0.51766279  0.44790348    -0.79100
O733        O  0.93539964  0.53355014  0.34128150    -0.90800
O734        O  0.88345346  0.48184174  0.38127932    -0.76700
O735        O  0.90368591  0.51101909  0.41167575    -0.86200
O736        O  0.89772884  0.51682444  0.36347825    -0.85900
O737        O  0.93296684  0.54546635  0.41291358    -0.72700
O738        O  0.92658896  0.55101313  0.36876644    -0.84800
Zr739      Zr  0.88642447  0.55078194  0.41293462     2.26400
Zr740      Zr  0.91112797  0.53173485  0.44242939     2.06300
Zr741      Zr  0.89933951  0.54302029  0.35149480     2.10000
Zr742      Zr  0.87700356  0.50365661  0.39415800     1.78800
O743        O  0.90496413  0.56391035  0.32026868    -0.93600
O744        O  0.86738820  0.48152983  0.42464847    -0.41400
O745        O  0.87826165  0.52971120  0.38189226    -0.78000
O746        O  0.88380101  0.52400834  0.42573472    -0.96700
O747        O  0.91323263  0.55812345  0.43052060    -0.90000
O748        O  0.90722159  0.56406171  0.38220617    -0.92900
C749        C  0.89658421  0.48128855  0.37379551     1.00900
C750        C  0.93276032  0.54117009  0.32386811     1.13800
C751        C  0.93743469  0.51468248  0.43476376     1.04600
O752        O  0.89653815  0.50898271  0.47155750    -0.95000
O753        O  0.89731392  0.53908336  0.47317448    -0.90800
O754        O  0.88256830  0.55061119  0.45615981    -0.83900
C755        C  0.88772108  0.54576438  0.47438886     1.11200
O756        O  0.96432542  0.58200718  0.39366491    -0.97000
Zr757      Zr  0.93396249  0.57127141  0.40012461     1.88900
O758        O  0.89929203  0.58200361  0.41601212    -0.73600
O759        O  0.93474606  0.54925171  0.46921962    -0.52900
O760        O  0.95073530  0.58413400  0.43595004    -0.97600
O761        O  0.94645747  0.59207779  0.36799068    -0.54800
O762        O  0.92793832  0.59335699  0.41151644    -0.74200
C763        C  0.91473140  0.59471330  0.41542331     0.98200
O764        O  0.85917794  0.54565101  0.42903473    -0.63000
O765        O  0.88008509  0.52038016  0.32455515    -0.57800
O766        O  0.86827627  0.55329215  0.38278593    -0.94500
O767        O  0.87737994  0.55092240  0.34613636    -0.92900
O768        O  0.85773872  0.48982210  0.36077747    -0.93200
O769        O  0.84734823  0.49461478  0.40358947    -0.92000
C770        C  0.86747478  0.55337347  0.35994540     1.17000
H771        H  0.89550759  0.50926667  0.35016312     0.33000
H772        H  0.87505753  0.51886076  0.43784725     0.43800
H773        H  0.90724801  0.57398603  0.37574042     0.37300
H774        H  0.94397427  0.54822415  0.41937619     0.33800
H775        H  0.86036490  0.48389818  0.43579487     0.25600
H776        H  0.93205718  0.55780454  0.47574837     0.31600
H777        H  0.95528000  0.59658883  0.43413159     0.37500
H778        H  0.85360828  0.47746389  0.36287208     0.31900
H779        H  0.86875824  0.51931191  0.32723458     0.30800
H780        H  0.91686449  0.57319882  0.32303908     0.32500
H781        H  0.95104332  0.60337494  0.37576738     0.31500
H782        H  0.84587442  0.50428717  0.39842925     0.35400
H783        H  0.85813239  0.55564719  0.42425424     0.28200
H784        H  0.95094346  0.51681454  0.37030418     0.32400
H785        H  0.96525235  0.57162562  0.39150881     0.35300
H786        H  0.88351133  0.52547475  0.30850226     0.27900
H787        H  0.85026655  0.53590613  0.41982098     0.40700
H788        H  0.88967012  0.49854215  0.46195823     0.30800
H789        H  0.85912400  0.47082152  0.41645244     0.38400
H790        H  0.93657773  0.59070069  0.35857937     0.30300
H791        H  0.93319265  0.54162858  0.48282209     0.30300
H792        H  0.96050599  0.53598194  0.37886931     0.30600
Zr793      Zr  0.73529753  0.60601361  0.28047536     2.17500
O794        O  0.75748348  0.63479031  0.29173252    -0.51800
O795        O  0.75179008  0.59257837  0.29164878    -0.75000
O796        O  0.73946807  0.61504038  0.32195448    -0.81700
O797        O  0.74400187  0.60985112  0.21385780    -0.83500
O798        O  0.71356113  0.60159971  0.34041744    -0.79100
O799        O  0.75704642  0.61998323  0.24953495    -0.90800
O800        O  0.73629148  0.56403718  0.28440599    -0.76700
O801        O  0.71621645  0.57963478  0.29956840    -0.86200
O802        O  0.72741481  0.58425179  0.25127478    -0.85900
O803        O  0.71147136  0.60881379  0.29306191    -0.72700
O804        O  0.72247215  0.61347258  0.24864250    -0.84800
Zr805      Zr  0.67027135  0.56732897  0.25148117     2.26400
Zr806      Zr  0.69217792  0.58210481  0.31185629     2.06300
Zr807      Zr  0.71363567  0.59086887  0.22022555     2.10000
Zr808      Zr  0.70827167  0.55803250  0.27009636     1.78800
O809        O  0.71653473  0.61093548  0.18903763    -0.93600
O810        O  0.70254987  0.54025782  0.30537893    -0.41400
O811        O  0.69402225  0.56409942  0.23850797    -0.78000
O812        O  0.68389042  0.55992037  0.28257714    -0.96700
O813        O  0.67866884  0.58920248  0.28071148    -0.90000
O814        O  0.68973269  0.59356098  0.23241761    -0.92900
C815        C  0.74992743  0.57751886  0.29148553     1.00900
C816        C  0.75721848  0.61913070  0.22671469     1.13800
C817        C  0.72975383  0.61238542  0.34006480     1.04600
O818        O  0.69257522  0.56410002  0.34380738    -0.95000
O819        O  0.66254830  0.55987030  0.31927143    -0.90800
O820        O  0.64948329  0.55159572  0.28320956    -0.83900
C821        C  0.64940830  0.55066116  0.30610534     1.11200
O822        O  0.71894357  0.64586144  0.26326504    -0.97000
Zr823      Zr  0.69816560  0.61533486  0.26138056     1.88900
O824        O  0.65240853  0.58056379  0.24751570    -0.73600
O825        O  0.67884693  0.59465345  0.33588339    -0.52900
O826        O  0.69362646  0.63217059  0.29136402    -0.97600
O827        O  0.69846316  0.62825816  0.22314787    -0.54800
O828        O  0.66889826  0.60856768  0.25757987    -0.74200
C829        C  0.65456649  0.59549605  0.25191753     0.98200
O830        O  0.64731528  0.53963192  0.23775492    -0.63000
O831        O  0.72385522  0.57567078  0.19548834    -0.57800
O832        O  0.66556987  0.56164884  0.20852569    -0.94500
O833        O  0.69170182  0.57550419  0.19082342    -0.92900
O834        O  0.72002116  0.54746040  0.23987822    -0.93200
O835        O  0.68852338  0.52789824  0.26155607    -0.92000
C836        C  0.67539258  0.56585931  0.19014186     1.17000
H837        H  0.73730292  0.58397816  0.24527625     0.33000
H838        H  0.67593336  0.54891902  0.28919371     0.43800
H839        H  0.68433508  0.59567230  0.21899593     0.37300
H840        H  0.71529942  0.61822651  0.30408701     0.33800
H841        H  0.70852691  0.54846296  0.31844698     0.25600
H842        H  0.68758415  0.60693395  0.33718623     0.31600
H843        H  0.70196270  0.63435941  0.30424555     0.37500
H844        H  0.71091728  0.54180951  0.22775741     0.31900
H845        H  0.71350139  0.56557919  0.18908910     0.30800
H846        H  0.72677078  0.61316784  0.17979451     0.32500
H847        H  0.71024404  0.63283301  0.21704980     0.31500
H848        H  0.67697968  0.52647561  0.26335258     0.35400
H849        H  0.64753420  0.53108077  0.24854906     0.28200
H850        H  0.75708591  0.64244724  0.27944552     0.32400
H851        H  0.72957320  0.64699724  0.25650313     0.35300
H852        H  0.72916371  0.58319891  0.18153814     0.27900
H853        H  0.63654440  0.53949498  0.24158253     0.40700
H854        H  0.68955662  0.56827492  0.35824711     0.30800
H855        H  0.69024557  0.53551880  0.30886140     0.38400
H856        H  0.69764315  0.63851021  0.22701715     0.30300
H857        H  0.66991189  0.59449041  0.32549615     0.30300
H858        H  0.76852729  0.63519828  0.28922821     0.30600
Zr859      Zr  0.80288578  0.73476503  0.55311315     2.17500
O860        O  0.80380237  0.70855271  0.54625259    -0.51800
O861        O  0.83285865  0.74803844  0.54096805    -0.75000
O862        O  0.79381438  0.72302944  0.51305049    -0.81700
O863        O  0.80649872  0.72976676  0.62051523    -0.83500
O864        O  0.78171843  0.73680504  0.49473562    -0.79100
O865        O  0.80679296  0.71835570  0.58471873    -0.90800
O866        O  0.84469103  0.77684549  0.54297128    -0.76700
O867        O  0.80861955  0.76033553  0.53260503    -0.86200
O868        O  0.81825931  0.75749539  0.58071217    -0.85900
O869        O  0.77514045  0.73078346  0.54289284    -0.72700
O870        O  0.78413144  0.72850184  0.58657533    -0.84800
Zr871      Zr  0.77826225  0.77408726  0.58392637     2.26400
Zr872      Zr  0.78103095  0.75688446  0.52319392     2.06300
Zr873      Zr  0.79930675  0.75173545  0.61367473     2.10000
Zr874      Zr  0.82380004  0.78288711  0.56051290     1.78800
O875        O  0.78357415  0.73415946  0.64766861    -0.93600
O876        O  0.83455313  0.80198404  0.52626226    -0.41400
O877        O  0.80573629  0.77787759  0.59445949    -0.78000
O878        O  0.79696880  0.78014295  0.55024416    -0.96700
O879        O  0.76255776  0.75126356  0.55654266    -0.90000
O880        O  0.77217298  0.74834745  0.60367715    -0.92900
C881        C  0.84539692  0.76335037  0.53809844     1.00900
C882        C  0.80800885  0.71895192  0.60754949     1.13800
C883        C  0.78629475  0.72540520  0.49523266     1.04600
O884        O  0.79355568  0.77166367  0.48597987    -0.95000
O885        O  0.77363142  0.77943800  0.51751480    -0.90800
O886        O  0.77245121  0.78983193  0.55391762    -0.83900
C887        C  0.77154062  0.78975594  0.53110004     1.11200
O888        O  0.74541363  0.69500186  0.57333843    -0.97000
Zr889      Zr  0.75713578  0.72578305  0.57639193     1.88900
O890        O  0.74758527  0.76232722  0.58838700    -0.73600
O891        O  0.75281754  0.74275164  0.50469712    -0.52900
O892        O  0.73548023  0.71144066  0.54572614    -0.97600
O893        O  0.74556499  0.70869669  0.61237557    -0.54800
O894        O  0.73612265  0.73342749  0.58849835    -0.74200
C895        C  0.73500852  0.74697785  0.59052345     0.98200
O896        O  0.78833858  0.80312352  0.59797637    -0.63000
O897        O  0.82635873  0.76616177  0.63512184    -0.57800
O898        O  0.77759253  0.77789050  0.62700515    -0.94500
O899        O  0.79371746  0.76771592  0.64354401    -0.92900
O900        O  0.84716785  0.79555762  0.58910844    -0.93200
O901        O  0.83374122  0.81308447  0.56730179    -0.92000
C902        C  0.78466512  0.77501760  0.64498642     1.17000
H903        H  0.82873916  0.75800786  0.58581965     0.33000
H904        H  0.79988539  0.79096796  0.54306157     0.43800
H905        H  0.76520311  0.74635182  0.61763508     0.37300
H906        H  0.76862971  0.72081576  0.53288758     0.33800
H907        H  0.84678485  0.80537534  0.52502522     0.25600
H908        H  0.74569945  0.74563544  0.51490580     0.31600
H909        H  0.73088031  0.71915837  0.54264205     0.37500
H910        H  0.85757950  0.80210787  0.57931331     0.31900
H911        H  0.83098397  0.77846990  0.63180460     0.30800
H912        H  0.79245348  0.73573426  0.65934477     0.32500
H913        H  0.73421526  0.70765924  0.61462330     0.31500
H914        H  0.82731478  0.81325392  0.58144214     0.35400
H915        H  0.79632108  0.81065957  0.58553962     0.28200
H916        H  0.81128596  0.71083755  0.53225570     0.32400
H917        H  0.75506066  0.69373950  0.56752737     0.35300
H918        H  0.82307499  0.76480577  0.65211608     0.27900
H919        H  0.77832397  0.80476802  0.59685243     0.40700
H920        H  0.80583443  0.77530606  0.48724299     0.30800
H921        H  0.82910336  0.79451238  0.51234098     0.38400
H922        H  0.75261749  0.71610301  0.62558909     0.30300
H923        H  0.75433940  0.74927430  0.48984775     0.30300
H924        H  0.79218543  0.69988664  0.54088918     0.30600
Zr925      Zr  0.72028889  0.81892846  0.94540107     2.17500
O926        O  0.69235478  0.81630508  0.95203788    -0.51800
O927        O  0.73300823  0.84902132  0.95681677    -0.75000
O928        O  0.71048913  0.81262010  0.98651731    -0.81700
O929        O  0.71352617  0.81905570  0.87802167    -0.83500
O930        O  0.72487614  0.80171909  0.00629498    -0.79100
O931        O  0.70371283  0.82246175  0.91358755    -0.90800
O932        O  0.76153789  0.86269131  0.94970143    -0.76700
O933        O  0.74713806  0.82795717  0.96438096    -0.86200
O934        O  0.74139383  0.83282571  0.91529409    -0.85900
O935        O  0.71883041  0.79300227  0.95960049    -0.72700
O936        O  0.71352893  0.79776443  0.91495033    -0.84800
Zr937      Zr  0.76078216  0.79471662  0.91778211     2.26400
Zr938      Zr  0.74609029  0.80230111  0.97831672     2.06300
Zr939      Zr  0.73526102  0.81155586  0.88551141     2.10000
Zr940      Zr  0.76809206  0.84142801  0.93398817     1.78800
O941        O  0.71540489  0.79295820  0.85515506    -0.93600
O942        O  0.78956270  0.85636053  0.96480128    -0.41400
O943        O  0.76245110  0.82064546  0.90342773    -0.78000
O944        O  0.76765715  0.81612454  0.94821628    -0.96700
O945        O  0.73971212  0.78114864  0.94812952    -0.90000
O946        O  0.73395909  0.78590386  0.89922165    -0.92900
C947        C  0.74795477  0.86248108  0.95695243     1.00900
C948        C  0.70357849  0.82212354  0.89068400     1.13800
C949        C  0.71329541  0.80606199  0.00506404     1.04600
O950        O  0.76460408  0.82478170  0.00596027    -0.95000
O951        O  0.76850445  0.79468947  0.98509461    -0.90800
O952        O  0.77671616  0.79006047  0.94896238    -0.83900
C953        C  0.77770672  0.79080456  0.97177040     1.11200
O954        O  0.68291653  0.76346166  0.93499583    -0.97000
Zr955      Zr  0.71301040  0.77253694  0.92930252     1.88900
O956        O  0.74938057  0.76387964  0.91400366    -0.73600
O957        O  0.73651157  0.78021841  0.00884367    -0.52900
O958        O  0.70091245  0.75262503  0.96248464    -0.97600
O959        O  0.69514659  0.75556307  0.89612032    -0.54800
O960        O  0.72117850  0.75121178  0.92324728    -0.74200
C961        C  0.73464559  0.75065880  0.91786382     0.98200
O962        O  0.78931770  0.80206706  0.90428632    -0.63000
O963        O  0.74904060  0.83600504  0.85875437    -0.57800
O964        O  0.76608820  0.79461931  0.87498716    -0.94500
O965        O  0.75112442  0.80535948  0.85650483    -0.92900
O966        O  0.77649533  0.86255905  0.90233000    -0.93200
O967        O  0.79745121  0.85130825  0.92183728    -0.92000
C968        C  0.76119759  0.79920956  0.85623273     1.17000
H969        H  0.74099279  0.84252559  0.90875786     0.33000
H970        H  0.77886419  0.81971489  0.95471001     0.43800
H971        H  0.73202494  0.77810629  0.88626583     0.37300
H972        H  0.70943574  0.78682547  0.97039894     0.33800
H973        H  0.78568862  0.86322089  0.97376829     0.25600
H974        H  0.73868533  0.77132814  0.00225105     0.31600
H975        H  0.69657923  0.74114033  0.95540066     0.37500
H976        H  0.78229759  0.87375548  0.91056599     0.31900
H977        H  0.76133785  0.83955440  0.85931191     0.30800
H978        H  0.70455070  0.78575979  0.86377461     0.32500
H979        H  0.69235182  0.74368989  0.89963326     0.31500
H980        H  0.79676332  0.84181568  0.91217959     0.35400
H981        H  0.79732590  0.80982533  0.91652604     0.28200
H982        H  0.69403407  0.82457675  0.96477240     0.32400
H983        H  0.68291820  0.77198924  0.94605986     0.35300
H984        H  0.74526016  0.83108787  0.84265600     0.27900
H985        H  0.78975357  0.79136082  0.90579574     0.40700
H986        H  0.75798605  0.83033620  0.01068813     0.30800
H987        H  0.78815662  0.84733244  0.97607871     0.38400
H988        H  0.70279599  0.75892090  0.88213931     0.30300
H989        H  0.74488692  0.78551275  0.02195019     0.30300
H990        H  0.68507461  0.80485246  0.95917900     0.30600
Zr991      Zr  0.59250847  0.75292100  0.21638520     2.17500
O992        O  0.62119335  0.77719727  0.20988111    -0.51800
O993        O  0.58066406  0.77047466  0.20361165    -0.75000
O994        O  0.60201456  0.75577955  0.17506054    -0.81700
O995        O  0.59669729  0.76176178  0.28342097    -0.83500
O996        O  0.58721024  0.72966737  0.15743552    -0.79100
O997        O  0.60710564  0.77425569  0.24754120    -0.90800
O998        O  0.55198762  0.75581190  0.20962954    -0.76700
O999        O  0.56626917  0.73407788  0.19667873    -0.86200
O1000       O  0.57037088  0.74636949  0.24457260    -0.85900
O1001       O  0.59476033  0.72839098  0.20520328    -0.72700
O1002       O  0.59858712  0.74012155  0.24971423    -0.84800
Zr1003     Zr  0.55198646  0.68893562  0.24776748     2.26400
Zr1004     Zr  0.56790046  0.70911346  0.18664743     2.06300
Zr1005     Zr  0.57546628  0.73234743  0.27701340     2.10000
Zr1006     Zr  0.54436429  0.72745972  0.22513726     1.78800
O1007       O  0.59263150  0.73264607  0.31062149    -0.93600
O1008       O  0.52694684  0.72091301  0.18935347    -0.41400
O1009       O  0.54905066  0.71321307  0.25808330    -0.78000
O1010       O  0.54553235  0.70222779  0.21504819    -0.96700
O1011       O  0.57401341  0.69600000  0.21917258    -0.90000
O1012       O  0.57818948  0.70813994  0.26696441    -0.92900
C1013       C  0.56587979  0.76918594  0.20289243     1.00900
C1014       C  0.60652633  0.77459537  0.27038783     1.13800
C1015       C  0.59868534  0.74562557  0.15729264     1.04600
O1016       O  0.54907790  0.70681387  0.15400832    -0.95000
O1017       O  0.54619033  0.67902578  0.18094145    -0.90800
O1018       O  0.53647283  0.66735460  0.21744515    -0.83900
C1019       C  0.53626692  0.66647974  0.19461969     1.11200
O1020       O  0.62958175  0.73545258  0.22723341    -0.97000
Zr1021     Zr  0.60009089  0.71540364  0.23846115     1.88900
O1022       O  0.56362761  0.66991059  0.25371005    -0.73600
O1023       O  0.58148488  0.69586320  0.16473889    -0.52900
O1024       O  0.61647215  0.70588262  0.21515785    -0.97600
O1025       O  0.61504184  0.71991166  0.27619823    -0.54800
O1026       O  0.59195156  0.68602542  0.24555692    -0.74200
C1027       C  0.57858265  0.67181895  0.25075229     0.98200
O1028       O  0.52351399  0.66771642  0.26151329    -0.63000
O1029       O  0.56111457  0.74421912  0.30033747    -0.57800
O1030       O  0.54706066  0.68537269  0.29087819    -0.94500
O1031       O  0.55730991  0.71195056  0.30650015    -0.92900
O1032       O  0.53235891  0.73827912  0.25454247    -0.93200
O1033       O  0.51401922  0.70927435  0.23375764    -0.92000
C1034       C  0.54942965  0.69561579  0.30825760     1.17000
H1035       H  0.57050442  0.75660223  0.24980291     0.33000
H1036       H  0.53458073  0.69428498  0.20821889     0.43800
H1037       H  0.58010060  0.70304681  0.28082142     0.37300
H1038       H  0.60427964  0.73156006  0.19434252     0.33800
H1039       H  0.52100470  0.72755430  0.19103595     0.25600
H1040       H  0.57761400  0.69525787  0.14811420     0.31600
H1041       H  0.60846754  0.69844908  0.20266371     0.37500
H1042       H  0.53824479  0.75080278  0.25196873     0.31900
H1043       H  0.57030982  0.75431179  0.30864445     0.30800
H1044       H  0.60422172  0.73693827  0.30401070     0.32500
H1045       H  0.62672502  0.72962422  0.27339251     0.31500
H1046       H  0.51136574  0.69759798  0.22927611     0.35400
H1047       H  0.51549800  0.66803509  0.24978912     0.28200
H1048       H  0.61988999  0.78437305  0.19766089     0.32400
H1049       H  0.63013292  0.74664697  0.22588981     0.35300
H1050       H  0.55654348  0.74905455  0.28858223     0.27900
H1051       H  0.52272463  0.65647852  0.25908769     0.40700
H1052       H  0.55593583  0.71690421  0.14376720     0.30800
H1053       H  0.53526431  0.72672476  0.17633936     0.38400
H1054       H  0.61657242  0.70985067  0.27793640     0.30300
H1055       H  0.59382450  0.70456621  0.16444908     0.30300
H1056       H  0.62776931  0.77251155  0.20203057     0.30600
Zr1057     Zr  0.51486889  0.58709004  0.60925911     2.17500
O1058       O  0.51597240  0.56103404  0.61690577    -0.51800
O1059       O  0.48534626  0.57084065  0.62232798    -0.75000
O1060       O  0.52378554  0.58512912  0.64963448    -0.81700
O1061       O  0.50533273  0.57621302  0.54317674    -0.83500
O1062       O  0.53581584  0.61126554  0.66720112    -0.79100
O1063       O  0.50773616  0.56538420  0.57849322    -0.90800
O1064       O  0.47254668  0.58660690  0.61614829    -0.76700
O1065       O  0.50966594  0.60734220  0.62933222    -0.86200
O1066       O  0.49887399  0.59406170  0.58235939    -0.85900
O1067       O  0.54280446  0.61103086  0.61811876    -0.72700
O1068       O  0.53230717  0.59828489  0.57439934    -0.84800
Zr1069     Zr  0.54018799  0.65082219  0.57587256     2.26400
Zr1070     Zr  0.53735729  0.63162847  0.63737579     2.06300
Zr1071     Zr  0.51667872  0.60642285  0.54842508     2.10000
Zr1072     Zr  0.49424858  0.61461598  0.60183811     1.78800
O1073       O  0.52868555  0.60015475  0.51371675    -0.93600
O1074       O  0.48368664  0.62044717  0.63845118    -0.41400
O1075       O  0.51196141  0.62727284  0.56744931    -0.78000
O1076       O  0.52166952  0.63899177  0.61003981    -0.96700
O1077       O  0.55539586  0.64309650  0.60321683    -0.90000
O1078       O  0.54460023  0.63004606  0.55605417    -0.92900
C1079       C  0.47226624  0.57285003  0.62269827     1.00900
C1080       C  0.50422336  0.56403008  0.55612852     1.13800
C1081       C  0.53108474  0.59524633  0.66730603     1.04600
O1082       O  0.52312704  0.63501710  0.67194415    -0.95000
O1083       O  0.54584610  0.66191703  0.64257949    -0.90800
O1084       O  0.54825843  0.67316166  0.60565429    -0.83900
C1085       C  0.54890851  0.67439655  0.62845768     1.11200
O1086       O  0.56517143  0.59854184  0.58560278    -0.97000
Zr1087     Zr  0.55968247  0.62232041  0.58306008     1.88900
O1088       O  0.57105474  0.66851088  0.56886760    -0.73600
O1089       O  0.56478472  0.64380486  0.65784386    -0.52900
O1090       O  0.58477938  0.62839418  0.60656571    -0.97600
O1091       O  0.56951686  0.61948540  0.54389640    -0.54800
O1092       O  0.58206187  0.65110000  0.57475744    -0.74200
C1093       C  0.58369390  0.66575621  0.57031013     0.98200
O1094       O  0.53255184  0.67211507  0.56396769    -0.63000
O1095       O  0.48929171  0.59712748  0.52897396    -0.57800
O1096       O  0.53723869  0.65431459  0.53301295    -0.94500
O1097       O  0.52191289  0.62733269  0.51828857    -0.92900
O1098       O  0.47174756  0.60593110  0.57214713    -0.93200
O1099       O  0.48411603  0.63491344  0.59803890    -0.92000
C1100       C  0.52956899  0.64361567  0.51594588     1.17000
H1101       H  0.48823420  0.58408724  0.57775661     0.33000
H1102       H  0.51931668  0.64738897  0.61687072     0.43800
H1103       H  0.55106591  0.63458709  0.54158010     0.37300
H1104       H  0.54926624  0.60777030  0.62839491     0.33800
H1105       H  0.48215225  0.61128986  0.64959426     0.25600
H1106       H  0.57343717  0.65040247  0.64552484     0.31600
H1107       H  0.59410201  0.63189361  0.59478246     0.37500
H1108       H  0.46105644  0.59784396  0.58050264     0.31900
H1109       H  0.48794717  0.60735448  0.52898671     0.30800
H1110       H  0.51972067  0.59649740  0.50133038     0.32500
H1111       H  0.56132788  0.60760609  0.53892991     0.31500
H1112       H  0.49237292  0.64380926  0.58708286     0.35400
H1113       H  0.52593731  0.67294702  0.57742080     0.28200
H1114       H  0.50848981  0.55549201  0.63082521     0.32400
H1115       H  0.56135211  0.59371609  0.60172861     0.35300
H1116       H  0.49126989  0.59557075  0.51207788     0.27900
H1117       H  0.54344381  0.68317993  0.56386019     0.40700
H1118       H  0.51227774  0.62399129  0.67334658     0.30800
H1119       H  0.49355044  0.63096126  0.64493352     0.38400
H1120       H  0.58035162  0.61955297  0.54691961     0.30300
H1121       H  0.56502003  0.65258413  0.66861775     0.30300
H1122       H  0.52773600  0.56481530  0.62250497     0.30600
Zr1123     Zr  0.57866840  0.52769905  0.88550713     2.17500
O1124       O  0.55671018  0.53539695  0.87850588    -0.51800
O1125       O  0.56098128  0.49754209  0.87515289    -0.75000
O1126       O  0.57517198  0.53188850  0.84358111    -0.81700
O1127       O  0.57033174  0.52617559  0.95203045    -0.83500
O1128       O  0.60128119  0.54537062  0.82570673    -0.79100
O1129       O  0.55706372  0.52047292  0.91611660    -0.90800
O1130       O  0.57778810  0.48556843  0.87840043    -0.76700
O1131       O  0.59814242  0.52121064  0.86602815    -0.86200
O1132       O  0.58605363  0.51313048  0.91417834    -0.85900
O1133       O  0.60246456  0.55473247  0.87363652    -0.72700
O1134       O  0.59142610  0.54739363  0.91789953    -0.84800
Zr1135     Zr  0.64293926  0.55345274  0.91664898     2.26400
Zr1136     Zr  0.62244110  0.54813221  0.85523633     2.06300
Zr1137     Zr  0.59946430  0.53290774  0.94602981     2.10000
Zr1138     Zr  0.60547258  0.50672936  0.89478214     1.78800
O1139       O  0.59970563  0.54940198  0.98044692    -0.93600
O1140       O  0.61193477  0.49607550  0.85875358    -0.41400
O1141       O  0.61901943  0.52605339  0.92757080    -0.78000
O1142       O  0.63017112  0.53345773  0.88403085    -0.96700
O1143       O  0.63531053  0.56761219  0.88754101    -0.90000
O1144       O  0.62330182  0.55999380  0.93529841    -0.92900
C1145       C  0.56354798  0.48482105  0.87330359     1.00900
C1146       C  0.55710739  0.52149937  0.93892646     1.13800
C1147       C  0.58496851  0.53923701  0.82565467     1.04600
O1148       O  0.62465942  0.53272985  0.82120013    -0.95000
O1149       O  0.65270468  0.55716088  0.84938594    -0.90800
O1150       O  0.66483422  0.56181724  0.88616585    -0.83900
C1151       C  0.66563056  0.56180057  0.86333222     1.11200
O1152       O  0.59439956  0.58312184  0.90712206    -0.97000
Zr1153     Zr  0.61559826  0.57398789  0.90610889     1.88900
O1154       O  0.66108228  0.58453599  0.92202626    -0.73600
O1155       O  0.63502292  0.57593475  0.83571380    -0.52900
O1156       O  0.62011056  0.59446313  0.87461209    -0.97600
O1157       O  0.61582161  0.58900041  0.94222929    -0.54800
O1158       O  0.64519015  0.59608296  0.90930249    -0.74200
C1159       C  0.65929912  0.59735623  0.91620257     0.98200
O1160       O  0.66395980  0.54540899  0.92832252    -0.63000
O1161       O  0.58596684  0.50625131  0.96858564    -0.57800
O1162       O  0.64678875  0.55174963  0.95982356    -0.94500
O1163       O  0.62013484  0.53554723  0.97522653    -0.92900
O1164       O  0.59328758  0.48243616  0.92199480    -0.93200
O1165       O  0.62472031  0.49610739  0.90489996    -0.92000
C1166       C  0.63645531  0.54380405  0.97718824     1.17000
H1167       H  0.57597507  0.50289019  0.91960735     0.33000
H1168       H  0.63845956  0.53085024  0.87740286     0.43800
H1169       H  0.62840794  0.56715705  0.94912002     0.37300
H1170       H  0.59866400  0.56025606  0.86254172     0.33800
H1171       H  0.62456627  0.50177751  0.85808458     0.25600
H1172       H  0.63916513  0.57424659  0.82023631     0.31600
H1173       H  0.60928897  0.58954566  0.86548374     0.37500
H1174       H  0.58655622  0.48483304  0.93363744     0.31900
H1175       H  0.58588002  0.50981138  0.98520397     0.30800
H1176       H  0.59168068  0.55348189  0.97647472     0.32500
H1177       H  0.62735567  0.59347674  0.94920969     0.31500
H1178       H  0.63312393  0.50473762  0.91600005     0.35400
H1179       H  0.66440693  0.53855494  0.91489964     0.28200
H1180       H  0.54864419  0.52694832  0.86691907     0.32400
H1181       H  0.58322364  0.57235954  0.90725688     0.35300
H1182       H  0.57377766  0.50019176  0.96377113     0.27900
H1183       H  0.67512701  0.55618356  0.92797214     0.40700
H1184       H  0.61555809  0.52070238  0.82373612     0.30800
H1185       H  0.60810257  0.48391624  0.86217190     0.38400
H1186       H  0.60803972  0.57987689  0.95328440     0.30300
H1187       H  0.62524533  0.57752684  0.83162707     0.30300
H1188       H  0.56252256  0.54640695  0.86976707     0.30600
Zr1189     Zr  0.46423092  0.41590938  0.38111560     2.17500
O1190       O  0.46407568  0.44118762  0.36604887    -0.51800
O1191       O  0.49413195  0.43148667  0.36985035    -0.75000
O1192       O  0.47229767  0.43823431  0.41102757    -0.81700
O1193       O  0.44119445  0.39093727  0.32468576    -0.83500
O1194       O  0.47380367  0.42747536  0.44678757    -0.79100
O1195       O  0.45406267  0.41733770  0.34159080    -0.90800
O1196       O  0.50736000  0.41708801  0.38184987    -0.76700
O1197       O  0.47857911  0.40884326  0.41049320    -0.86200
O1198       O  0.47051975  0.39582543  0.36291938    -0.85900
O1199       O  0.44438666  0.40484341  0.41376983    -0.72700
O1200       O  0.43724335  0.39211566  0.36965786    -0.84800
Zr1201     Zr  0.43668489  0.35262711  0.41543375     2.26400
Zr1202     Zr  0.45870658  0.39681429  0.44252805     2.06300
Zr1203     Zr  0.44344832  0.37150467  0.35273496     2.10000
Zr1204     Zr  0.48423903  0.38835721  0.39284287     1.78800
O1205       O  0.42157922  0.35738764  0.32230698    -0.93600
O1206       O  0.50592375  0.39556656  0.42348185    -0.41400
O1207       O  0.45698066  0.36378852  0.38298038    -0.78000
O1208       O  0.46457159  0.37604564  0.42573461    -0.96700
O1209       O  0.43111527  0.37343349  0.43244488    -0.90000
O1210       O  0.42329962  0.35995277  0.38465937    -0.92900
C1211       C  0.50758516  0.43032736  0.37287989     1.00900
C1212       C  0.44601605  0.40697933  0.32443954     1.13800
C1213       C  0.47592650  0.43981310  0.43329986     1.04600
O1214       O  0.48354475  0.40443705  0.46753287    -0.95000
O1215       O  0.45103041  0.37600305  0.47383475    -0.90800
O1216       O  0.43641753  0.34914261  0.45864390    -0.83900
C1217       C  0.44288130  0.35969211  0.47612272     1.11200
O1218       O  0.40970969  0.40241572  0.39540805    -0.97000
Zr1219     Zr  0.41763888  0.38062870  0.40183911     1.88900
O1220       O  0.40554092  0.33506430  0.42063640    -0.73600
O1221       O  0.44437484  0.40405811  0.47326022    -0.52900
O1222       O  0.40158402  0.38491081  0.43317413    -0.97600
O1223       O  0.39860299  0.37298140  0.36756754    -0.54800
O1224       O  0.39487356  0.35269722  0.41393546    -0.74200
C1225       C  0.39302379  0.33800933  0.41898454     0.98200
O1226       O  0.44450087  0.33214806  0.43053232    -0.63000
O1227       O  0.46424726  0.37302626  0.32387923    -0.57800
O1228       O  0.42846552  0.32956502  0.38737598    -0.94500
O1229       O  0.43261782  0.34056879  0.35000669    -0.92900
O1230       O  0.49624219  0.38464563  0.35609047    -0.93200
O1231       O  0.49261935  0.36666629  0.39627237    -0.92000
C1232       C  0.42801863  0.32802800  0.36468277     1.17000
H1233       H  0.47768325  0.40074154  0.34905987     0.33000
H1234       H  0.46959869  0.37219077  0.43771181     0.43800
H1235       H  0.41295036  0.35010192  0.37894895     0.37300
H1236       H  0.44220946  0.41349262  0.42020313     0.33800
H1237       H  0.50733242  0.40613460  0.43089205     0.25600
H1238       H  0.44489966  0.41475057  0.46788468     0.31600
H1239       H  0.40617881  0.38308517  0.44816599     0.37500
H1240       H  0.50858265  0.38950717  0.35948389     0.31900
H1241       H  0.46095318  0.36096696  0.32085565     0.30800
H1242       H  0.41066305  0.35147660  0.33118829     0.32500
H1243       H  0.39193379  0.36032076  0.36758154     0.31500
H1244       H  0.48177394  0.35585413  0.39916284     0.35400
H1245       H  0.43365546  0.32105232  0.43113456     0.28200
H1246       H  0.47582628  0.45088625  0.36853691     0.32400
H1247       H  0.41557687  0.40817879  0.38047842     0.35300
H1248       H  0.46131251  0.37683447  0.30897687     0.27900
H1249       H  0.45121693  0.33082380  0.41766510     0.40700
H1250       H  0.48039296  0.40682512  0.48334221     0.30800
H1251       H  0.50035359  0.38669149  0.43592296     0.38400
H1252       H  0.40611380  0.37593154  0.35345812     0.30300
H1253       H  0.43215021  0.39523803  0.47177023     0.30300
H1254       H  0.45678030  0.44327902  0.37707363     0.30600
Zr1255     Zr  0.40527149  0.48290974  0.10658474     2.17500
O1256       O  0.42879680  0.47864575  0.11890885    -0.51800
O1257       O  0.42226857  0.51281553  0.11875867    -0.75000
O1258       O  0.42683223  0.49019562  0.07560930    -0.81700
O1259       O  0.38128849  0.46273265  0.16472100    -0.83500
O1260       O  0.41532535  0.48897889  0.03928874    -0.79100
O1261       O  0.40705304  0.47330946  0.14631547    -0.90800
O1262       O  0.40669165  0.52579931  0.11219133    -0.76700
O1263       O  0.39859266  0.49784957  0.07759417    -0.86200
O1264       O  0.38610514  0.49012620  0.12561768    -0.85900
O1265       O  0.39274104  0.46313151  0.07411730    -0.72700
O1266       O  0.38080349  0.45632724  0.11833411    -0.84800
Zr1267     Zr  0.34146732  0.45777390  0.07443933     2.26400
Zr1268     Zr  0.38528938  0.47806308  0.04569659     2.06300
Zr1269     Zr  0.36129645  0.46363305  0.13635984     2.10000
Zr1270     Zr  0.37896252  0.50440909  0.09613081     1.78800
O1271       O  0.34727899  0.43999038  0.16435943    -0.93600
O1272       O  0.39079203  0.52829314  0.06822828    -0.41400
O1273       O  0.35395454  0.47787618  0.10674886    -0.78000
O1274       O  0.36557969  0.48499969  0.06339241    -0.96700
O1275       O  0.36116834  0.45108978  0.05629351    -0.90000
O1276       O  0.34857129  0.44367835  0.10446623    -0.92900
C1277       C  0.42035614  0.52600015  0.11914262     1.00900
C1278       C  0.39702720  0.46646174  0.16417756     1.13800
C1279       C  0.42786320  0.49180715  0.05285257     1.04600
O1280       O  0.39413755  0.50456711  0.02401825    -0.95000
O1281       O  0.36421562  0.47077942  0.01482783    -0.90800
O1282       O  0.33768976  0.45766167  0.03126794    -0.83900
C1283       C  0.34788708  0.46327999  0.01328598     1.11200
O1284       O  0.38951941  0.42821623  0.09047035    -0.97000
Zr1285     Zr  0.36809362  0.43685346  0.08600425     1.88900
O1286       O  0.32282842  0.42683485  0.06860503    -0.73600
O1287       O  0.39188135  0.46429711  0.01345035    -0.52900
O1288       O  0.37093935  0.42275127  0.05082278    -0.97600
O1289       O  0.36141091  0.41572860  0.11729028    -0.54800
O1290       O  0.33908600  0.41474663  0.07694926    -0.74200
C1291       C  0.32486596  0.41381536  0.07143363     0.98200
O1292       O  0.32206640  0.46728838  0.06036243    -0.63000
O1293       O  0.36167176  0.48382597  0.16537987    -0.57800
O1294       O  0.31965984  0.45181375  0.10426591    -0.94500
O1295       O  0.33096681  0.45456246  0.14121845    -0.92900
O1296       O  0.37075209  0.51437776  0.13119641    -0.93200
O1297       O  0.36012890  0.51529603  0.08497271    -0.92000
C1298       C  0.31847963  0.45133895  0.12708015     1.17000
H1299       H  0.39122802  0.49715734  0.13950580     0.33000
H1300       H  0.36196966  0.49042354  0.05171830     0.43800
H1301       H  0.33858694  0.43360949  0.11050375     0.37300
H1302       H  0.40090113  0.46040836  0.06730749     0.33800
H1303       H  0.40295470  0.53156864  0.06638184     0.25600
H1304       H  0.38111625  0.45341962  0.01050905     0.31600
H1305       H  0.36557595  0.42578815  0.03779017     0.37500
H1306       H  0.37613411  0.52690499  0.12895682     0.31900
H1307       H  0.35108117  0.47713760  0.17477919     0.30800
H1308       H  0.34754237  0.43031370  0.15654465     0.32500
H1309       H  0.34880285  0.40964984  0.11888292     0.31500
H1310       H  0.34855370  0.50609409  0.08957912     0.35400
H1311       H  0.31038167  0.45775728  0.06371162     0.28200
H1312       H  0.43930035  0.48997099  0.11743246     0.32400
H1313       H  0.39930057  0.43805956  0.09837696     0.35300
H1314       H  0.37100955  0.48591714  0.17652560     0.27900
H1315       H  0.32376402  0.47650593  0.07148672     0.40700
H1316       H  0.39252187  0.50126126  0.00702959     0.30800
H1317       H  0.38551275  0.52317937  0.05272623     0.38400
H1318       H  0.36569477  0.42250459  0.13208664     0.30300
H1319       H  0.39335706  0.47139502  0.99923828     0.30300
H1320       H  0.42979797  0.47142880  0.10648357     0.30600
Zr1321     Zr  0.17376988  0.27107265  0.44486590     2.17500
O1322       O  0.18202453  0.30038267  0.45568188    -0.51800
O1323       O  0.14474640  0.25878175  0.45916029    -0.75000
O1324       O  0.16346949  0.28446682  0.41633772    -0.81700
O1325       O  0.19968368  0.27049881  0.49812480    -0.83500
O1326       O  0.16186049  0.27256075  0.38022822    -0.79100
O1327       O  0.18253363  0.28066590  0.48537847    -0.90800
O1328       O  0.13085440  0.23021085  0.45193123    -0.76700
O1329       O  0.15693618  0.24844929  0.41803246    -0.86200
O1330       O  0.16819019  0.24526415  0.46442968    -0.85900
O1331       O  0.19101948  0.27760272  0.40985244    -0.72700
O1332       O  0.20112434  0.27386895  0.45295072    -0.84800
Zr1333     Zr  0.19687361  0.23198906  0.40825750     2.26400
Zr1334     Zr  0.17427313  0.25443634  0.38347536     2.06300
Zr1335     Zr  0.19545451  0.24759303  0.47119348     2.10000
Zr1336     Zr  0.15188377  0.22286133  0.43707933     1.78800
O1337       O  0.22100990  0.25755431  0.49558399    -0.93600
O1338       O  0.12656165  0.20754668  0.41212431    -0.41400
O1339       O  0.17925925  0.22521430  0.44331982    -0.78000
O1340       O  0.16871943  0.22812033  0.40144800    -0.96700
O1341       O  0.20197792  0.25788123  0.38999283    -0.90000
O1342       O  0.21296580  0.25400379  0.43658915    -0.92900
C1343       C  0.13127779  0.24392087  0.45927211     1.00900
C1344       C  0.19298752  0.28006945  0.50032828     1.13800
C1345       C  0.16000960  0.28282932  0.39394594     1.04600
O1346       O  0.14765698  0.23870329  0.36125546    -0.95000
O1347       O  0.17804201  0.23919385  0.35115920    -0.90800
O1348       O  0.19384963  0.22777101  0.36473289    -0.83900
C1349       C  0.18620612  0.23116351  0.34796284     1.11200
O1350       O  0.22582224  0.30972458  0.42226459    -0.97000
Zr1351     Zr  0.21805789  0.27985348  0.41808333     1.88900
O1352       O  0.22778113  0.24458491  0.40140668    -0.73600
O1353       O  0.18919513  0.27617296  0.35306156    -0.52900
O1354       O  0.23157396  0.29759687  0.38328557    -0.97600
O1355       O  0.24028726  0.29358869  0.44817501    -0.54800
O1356       O  0.23933718  0.27343371  0.40370319    -0.74200
C1357       C  0.24045017  0.26002351  0.40011655     0.98200
O1358       O  0.19035092  0.20413910  0.39272946    -0.63000
O1359       O  0.17733160  0.23035911  0.50392373    -0.57800
O1360       O  0.20198550  0.21505403  0.43731723    -0.94500
O1361       O  0.20371376  0.22563339  0.47449369    -0.92900
O1362       O  0.14330064  0.20763508  0.47488122    -0.93200
O1363       O  0.14329493  0.19271875  0.43358853    -0.92000
C1364       C  0.20442612  0.21506149  0.45984283     1.17000
H1365       H  0.16209810  0.24374432  0.47913691     0.33000
H1366       H  0.16250420  0.21875808  0.39041717     0.43800
H1367       H  0.22344119  0.25436561  0.44124828     0.37300
H1368       H  0.19306179  0.28826839  0.40294949     0.33800
H1369       H  0.12493352  0.21662389  0.40488415     0.25600
H1370       H  0.19654028  0.27262291  0.34468483     0.31600
H1371       H  0.22275173  0.29269391  0.37069063     0.37500
H1372       H  0.13194709  0.20627057  0.47839364     0.31900
H1373       H  0.17627258  0.21898264  0.50185724     0.30800
H1374       H  0.21712530  0.25011750  0.50984979     0.32500
H1375       H  0.25103835  0.29996384  0.43901072     0.31500
H1376       H  0.15023308  0.19228616  0.42027459     0.35400
H1377       H  0.20092485  0.20355157  0.39494210     0.28200
H1378       H  0.17118439  0.30053239  0.45719305     0.32400
H1379       H  0.21868598  0.30975313  0.43559717     0.35300
H1380       H  0.18451210  0.23516104  0.51830050     0.27900
H1381       H  0.18195905  0.19559467  0.40393866     0.40700
H1382       H  0.13878239  0.23844871  0.37184364     0.30800
H1383       H  0.13015246  0.20296880  0.39873099     0.38400
H1384       H  0.24111184  0.28414797  0.45580960     0.30300
H1385       H  0.18026707  0.27435810  0.34131933     0.30300
H1386       H  0.18773802  0.30743169  0.44146346     0.30600
Zr1387     Zr  0.24192223  0.40286264  0.70961751     2.17500
O1388       O  0.21560957  0.38037721  0.69160189    -0.51800
O1389       O  0.22551529  0.41706180  0.70162126    -0.75000
O1390       O  0.22082261  0.38504978  0.73997635    -0.81700
O1391       O  0.26665189  0.40746818  0.65110616    -0.83500
O1392       O  0.23303293  0.39451572  0.77618568    -0.79100
O1393       O  0.24151921  0.39104081  0.67039760    -0.90800
O1394       O  0.24068324  0.44441360  0.71468804    -0.76700
O1395       O  0.24953099  0.42256608  0.74170091    -0.86200
O1396       O  0.26109916  0.43048761  0.69321730    -0.85900
O1397       O  0.25459993  0.39315530  0.73902539    -0.72700
O1398       O  0.26622781  0.40162680  0.69520223    -0.84800
Zr1399     Zr  0.30649954  0.43932369  0.74096948     2.26400
Zr1400     Zr  0.26317823  0.41377979  0.77041205     2.06300
Zr1401     Zr  0.28558687  0.42930201  0.67934220     2.10000
Zr1402     Zr  0.26904306  0.44993312  0.72573668     1.78800
O1403       O  0.30044703  0.42428036  0.64695789    -0.93600
O1404       O  0.25937015  0.46004234  0.75919038    -0.41400
O1405       O  0.29379215  0.44915384  0.71160930    -0.78000
O1406       O  0.28266708  0.44159942  0.75540315    -0.96700
O1407       O  0.28705153  0.41183147  0.75651445    -0.90000
O1408       O  0.29855036  0.42001807  0.70827713    -0.92900
C1409       C  0.22716596  0.43179791  0.70573060     1.00900
C1410       C  0.25138708  0.39453193  0.65222939     1.13800
C1411       C  0.22026940  0.38487417  0.76287467     1.04600
O1412       O  0.25469958  0.42805321  0.79951722    -0.95000
O1413       O  0.28484124  0.42641125  0.80091840    -0.90800
O1414       O  0.31114933  0.44102726  0.78394034    -0.83900
C1415       C  0.30119979  0.43545319  0.80215502     1.11200
O1416       O  0.25821340  0.36264683  0.71649375    -0.97000
Zr1417     Zr  0.27915397  0.39254143  0.72420965     1.88900
O1418       O  0.32471751  0.42634296  0.74309200    -0.73600
O1419       O  0.26015048  0.39170816  0.79821544    -0.52900
O1420       O  0.27646885  0.37483554  0.75845716    -0.97600
O1421       O  0.28595965  0.38040829  0.69009231    -0.54800
O1422       O  0.30807372  0.39874036  0.73117016    -0.74200
C1423       C  0.32242880  0.41147866  0.73769100     0.98200
O1424       O  0.32567457  0.46743984  0.75805698    -0.63000
O1425       O  0.28241974  0.44933067  0.65373644    -0.57800
O1426       O  0.32849122  0.45588386  0.71196857    -0.94500
O1427       O  0.31605969  0.45028320  0.67545942    -0.92900
O1428       O  0.27308811  0.46979366  0.69367039    -0.93200
O1429       O  0.28911536  0.47965220  0.73597499    -0.92000
C1430       C  0.32906901  0.45805344  0.68936656     1.17000
H1431       H  0.25578518  0.43333971  0.68050604     0.33000
H1432       H  0.28651084  0.44979591  0.76830018     0.43800
H1433       H  0.30837245  0.42024688  0.70112113     0.37300
H1434       H  0.24658255  0.38181423  0.74471479     0.33800
H1435       H  0.24787722  0.45038412  0.76312207     0.25600
H1436       H  0.25498957  0.39356806  0.81260846     0.31600
H1437       H  0.28438953  0.37050480  0.75517831     0.37500
H1438       H  0.28549348  0.47586074  0.69016988     0.31900
H1439       H  0.29126130  0.46074964  0.65946289     0.30800
H1440       H  0.30149824  0.43229980  0.63417002     0.32500
H1441       H  0.29682724  0.38991110  0.68380982     0.31500
H1442       H  0.29545080  0.47907219  0.74997488     0.35400
H1443       H  0.33666985  0.47226799  0.74943855     0.28200
H1444       H  0.20623271  0.38162949  0.69855298     0.32400
H1445       H  0.24834986  0.36295005  0.70932395     0.35300
H1446       H  0.28663332  0.44823147  0.63797782     0.27900
H1447       H  0.32075257  0.47459624  0.75311798     0.40700
H1448       H  0.24442828  0.42766305  0.79262057     0.30800
H1449       H  0.26663351  0.46068785  0.77279106     0.38400
H1450       H  0.27734687  0.37873887  0.67788462     0.30300
H1451       H  0.25104774  0.38077203  0.79150589     0.30300
H1452       H  0.21400070  0.36948954  0.69817184     0.30600
Zr1453     Zr  0.25801068  0.18948332  0.04886031     2.17500
O1454       O  0.28668114  0.19534101  0.03844048    -0.51800
O1455       O  0.24467805  0.15928875  0.03843293    -0.75000
O1456       O  0.27183518  0.18181231  0.08019654    -0.81700
O1457       O  0.25323137  0.20756123  0.98988839    -0.83500
O1458       O  0.26459619  0.18798173  0.11591896    -0.79100
O1459       O  0.26771951  0.19606215  0.00788227    -0.90800
O1460       O  0.21664503  0.14644357  0.04874731    -0.76700
O1461       O  0.23763970  0.17676446  0.08000338    -0.86200
O1462       O  0.23079989  0.18093637  0.03125711    -0.85900
O1463       O  0.26650219  0.21144891  0.07847867    -0.72700
O1464       O  0.25953389  0.21515726  0.03407097    -0.84800
Zr1465     Zr  0.22011141  0.21626578  0.07919556     2.26400
Zr1466     Zr  0.24547962  0.19873760  0.10910739     2.06300
Zr1467     Zr  0.23196982  0.20655395  0.01764984     2.10000
Zr1468     Zr  0.21062545  0.16857504  0.06264953     1.78800
O1469       O  0.23875134  0.22818546  0.98707615    -0.93600
O1470       O  0.20015717  0.14721735  0.09422083    -0.41400
O1471       O  0.21156986  0.19426967  0.04924828    -0.78000
O1472       O  0.21777162  0.18994066  0.09315134    -0.96700
O1473       O  0.24747633  0.22465850  0.09542129    -0.90000
O1474       O  0.23993298  0.22829032  0.04705486    -0.92900
C1475       C  0.22969044  0.14602824  0.04041585     1.00900
C1476       C  0.26476515  0.20317339  0.99010469     1.13800
C1477       C  0.27258272  0.18259071  0.10304108     1.04600
O1478       O  0.23097233  0.17527414  0.13726624    -0.95000
O1479       O  0.23300815  0.20773506  0.13963100    -0.90800
O1480       O  0.21802627  0.21896383  0.12259281    -0.83900
C1481       C  0.22390261  0.21493254  0.14090552     1.11200
O1482       O  0.29755892  0.24644019  0.05885845    -0.97000
Zr1483     Zr  0.26724198  0.23668930  0.06358079     1.88900
O1484       O  0.23242332  0.24749349  0.07990988    -0.73600
O1485       O  0.26827467  0.21730458  0.13638168    -0.52900
O1486       O  0.28470699  0.25379673  0.09685085    -0.97600
O1487       O  0.27910969  0.25420467  0.02808453    -0.54800
O1488       O  0.26021266  0.25896101  0.06876914    -0.74200
C1489       C  0.24720026  0.26026978  0.07453620     0.98200
O1490       O  0.19240373  0.20933803  0.09563246    -0.63000
O1491       O  0.21217905  0.18412650  0.99088359    -0.57800
O1492       O  0.20253675  0.21913293  0.04888194    -0.94500
O1493       O  0.21056944  0.21515429  0.01223153    -0.92900
O1494       O  0.19109396  0.15569498  0.02923966    -0.93200
O1495       O  0.18072820  0.15831131  0.07204395    -0.92000
C1496       C  0.20144989  0.21869486  0.02607325     1.17000
H1497       H  0.22833598  0.17311263  0.01820861     0.33000
H1498       H  0.20929757  0.18518815  0.10570089     0.43800
H1499       H  0.23951293  0.23771206  0.03962776     0.37300
H1500       H  0.27767860  0.21457730  0.08464553     0.33800
H1501       H  0.20865442  0.14337495  0.09527067     0.25600
H1502       H  0.26740433  0.22777849  0.13767122     0.31600
H1503       H  0.28902491  0.26582322  0.09199050     0.37500
H1504       H  0.18753990  0.14339557  0.02987062     0.31900
H1505       H  0.20112137  0.18373406  0.99316384     0.30800
H1506       H  0.25138486  0.23527046  0.98696793     0.32500
H1507       H  0.28594309  0.26606356  0.03410715     0.31500
H1508       H  0.18050289  0.16865495  0.07730848     0.35400
H1509       H  0.19093139  0.21920357  0.09163700     0.28200
H1510       H  0.28652254  0.18436125  0.04032195     0.32400
H1511       H  0.29793955  0.23877187  0.04660846     0.35300
H1512       H  0.21594540  0.18899387  0.97477256     0.27900
H1513       H  0.18385312  0.19979149  0.08576385     0.40700
H1514       H  0.23917105  0.17819562  0.15056475     0.30800
H1515       H  0.20183861  0.15379925  0.10901936     0.38400
H1516       H  0.26918740  0.25391499  0.02013542     0.30300
H1517       H  0.26456106  0.21170319  0.15211034     0.30300
H1518       H  0.29431928  0.20284482  0.05121167     0.30600
Zr1519     Zr  0.38915522  0.25876303  0.77919939     2.17500
O1520       O  0.36398194  0.23256127  0.79287100    -0.51800
O1521       O  0.40253772  0.24197540  0.79090838    -0.75000
O1522       O  0.37474291  0.23757921  0.74742998    -0.81700
O1523       O  0.38703816  0.28396208  0.83368091    -0.83500
O1524       O  0.38847499  0.24924974  0.71275866    -0.79100
O1525       O  0.37480128  0.25757948  0.81671497    -0.90800
O1526       O  0.43125169  0.25804097  0.78565498    -0.76700
O1527       O  0.41242607  0.26637422  0.75278869    -0.86200
O1528       O  0.41441297  0.27860724  0.80038016    -0.85900
O1529       O  0.38300556  0.27123434  0.74531847    -0.72700
O1530       O  0.38596610  0.28297188  0.78880695    -0.84800
Zr1531     Zr  0.42852228  0.32323320  0.74905095     2.26400
Zr1532     Zr  0.40701673  0.27946558  0.71950643     2.06300
Zr1533     Zr  0.41147982  0.30305161  0.80943766     2.10000
Zr1534     Zr  0.43748661  0.28645991  0.77341791     1.78800
O1535       O  0.40246289  0.31887603  0.83490432    -0.93600
O1536       O  0.45239724  0.27936446  0.74345298    -0.41400
O1537       O  0.43479636  0.31093441  0.78287583    -0.78000
O1538       O  0.43281792  0.29965713  0.73920049    -0.96700
O1539       O  0.40335993  0.30316731  0.72867671    -0.90000
O1540       O  0.40560610  0.31569542  0.77610543    -0.92900
C1541       C  0.41769685  0.24403232  0.79136081     1.00900
C1542       C  0.37572153  0.26797225  0.83311212     1.13800
C1543       C  0.37726608  0.23667861  0.72508516     1.04600
O1544       O  0.42433139  0.27016635  0.69800628    -0.95000
O1545       O  0.42183095  0.30129350  0.68969613    -0.90800
O1546       O  0.43137592  0.32747166  0.70622764    -0.83900
C1547       C  0.42860093  0.31759076  0.68832319     1.11200
O1548       O  0.35010466  0.27489763  0.75841189    -0.97000
Zr1549     Zr  0.38049304  0.29575177  0.75530946     1.88900
O1550       O  0.41616269  0.34137172  0.74115970    -0.73600
O1551       O  0.38798295  0.27439171  0.68590877    -0.52900
O1552       O  0.36498845  0.29204798  0.71829294    -0.97600
O1553       O  0.36668989  0.30415466  0.78532193    -0.54800
O1554       O  0.38729584  0.32374518  0.74035578    -0.74200
C1555       C  0.40084734  0.33841712  0.73778044     0.98200
O1556       O  0.45799769  0.34316119  0.73742509    -0.63000
O1557       O  0.42666072  0.29989400  0.84312540    -0.57800
O1558       O  0.44265634  0.34554140  0.77865581    -0.94500
O1559       O  0.43318879  0.33342125  0.81498416    -0.92900
O1560       O  0.45216691  0.28830175  0.81059164    -0.93200
O1561       O  0.46752573  0.30871490  0.77380589    -0.92000
C1562       C  0.44264508  0.34631948  0.80146470     1.17000
H1563       H  0.41576858  0.27336288  0.81459454     0.33000
H1564       H  0.44241091  0.30354032  0.72841900     0.43800
H1565       H  0.40496790  0.32557102  0.78120050     0.37300
H1566       H  0.37248205  0.26310400  0.73757101     0.33800
H1567       H  0.46180024  0.27913470  0.75219448     0.25600
H1568       H  0.38803285  0.28529684  0.68366588     0.31600
H1569       H  0.36375000  0.28146254  0.71119119     0.37500
H1570       H  0.45275927  0.29819470  0.81903144     0.31900
H1571       H  0.42847135  0.30920111  0.85413087     0.30800
H1572       H  0.39815972  0.32441705  0.82387035     0.32500
H1573       H  0.37338993  0.31681561  0.78561042     0.31500
H1574       H  0.46969941  0.31381518  0.75769832     0.35400
H1575       H  0.46499566  0.34364405  0.75127683     0.28200
H1576       H  0.36595212  0.22307439  0.78843490     0.32400
H1577       H  0.34940724  0.26689850  0.77099995     0.35300
H1578       H  0.41808436  0.28929901  0.85125110     0.27900
H1579       H  0.46075385  0.33706734  0.72514284     0.40700
H1580       H  0.43467528  0.28081949  0.69289561     0.30800
H1581       H  0.44437710  0.26723251  0.73944137     0.38400
H1582       H  0.36941120  0.30063148  0.80063700     0.30300
H1583       H  0.39417367  0.27357466  0.67191057     0.30300
H1584       H  0.35439675  0.23108385  0.78264926     0.30600
Zr1585     Zr  0.51123958  0.94144364  0.11165328     2.17500
O1586       O  0.50939147  0.96538103  0.12849817    -0.51800
O1587       O  0.48223166  0.92744213  0.12722272    -0.75000
O1588       O  0.50308407  0.95619779  0.08261687    -0.81700
O1589       O  0.53571891  0.94027925  0.16727054    -0.83500
O1590       O  0.50221850  0.94494283  0.04629859    -0.79100
O1591       O  0.52589630  0.95568917  0.14777505    -0.90800
O1592       O  0.46846616  0.89965463  0.11583508    -0.76700
O1593       O  0.49563704  0.91950118  0.08341041    -0.86200
O1594       O  0.50548837  0.91544157  0.13065082    -0.85900
O1595       O  0.52981276  0.94940752  0.07759717    -0.72700
O1596       O  0.53867222  0.94466308  0.12058581    -0.84800
Zr1597     Zr  0.53693996  0.90412342  0.07623760     2.26400
Zr1598     Zr  0.51430308  0.92649995  0.05009331     2.06300
Zr1599     Zr  0.53287458  0.91840947  0.13891049     2.10000
Zr1600     Zr  0.49053365  0.89369555  0.10171851     1.78800
O1601       O  0.55885021  0.92860964  0.16240468    -0.93600
O1602       O  0.46649593  0.87958435  0.07432195    -0.41400
O1603       O  0.51794347  0.89655322  0.10991222    -0.78000
O1604       O  0.50884739  0.90000846  0.06748018    -0.96700
O1605       O  0.54196195  0.93004822  0.05793960    -0.90000
O1606       O  0.55161966  0.92585740  0.10551460    -0.92900
C1607       C  0.46872622  0.91268142  0.12543520     1.00900
C1608       C  0.53329476  0.95312439  0.16546176     1.13800
C1609       C  0.49985305  0.95478481  0.06023320     1.04600
O1610       O  0.48722961  0.91046599  0.02904216    -0.95000
O1611       O  0.51935118  0.91152543  0.01859773    -0.90800
O1612       O  0.53602141  0.90120836  0.03256646    -0.83900
C1613       C  0.52816025  0.90412852  0.01564757     1.11200
O1614       O  0.56498475  0.98148075  0.09342604    -0.97000
Zr1615     Zr  0.55684143  0.95170933  0.08667277     1.88900
O1616       O  0.56810383  0.91714879  0.07121199    -0.73600
O1617       O  0.52757898  0.94649855  0.01723008    -0.52900
O1618       O  0.56664876  0.96656732  0.04879865    -0.97600
O1619       O  0.58124599  0.96796405  0.11292274    -0.54800
O1620       O  0.57903352  0.94586187  0.07431620    -0.74200
C1621       C  0.58061888  0.93270445  0.07084085     0.98200
O1622       O  0.52980959  0.87548264  0.06351041    -0.63000
O1623       O  0.51529422  0.90015626  0.17128655    -0.57800
O1624       O  0.54247182  0.88699744  0.10455131    -0.94500
O1625       O  0.54013923  0.89577120  0.14154142    -0.92900
O1626       O  0.48052356  0.87755966  0.13864769    -0.93200
O1627       O  0.48140529  0.86364595  0.09543489    -0.92000
C1628       C  0.54279620  0.88614683  0.12737296     1.17000
H1629       H  0.49898638  0.91340748  0.14507703     0.33000
H1630       H  0.50312788  0.89082653  0.05603735     0.43800
H1631       H  0.56207207  0.92645678  0.11083203     0.37300
H1632       H  0.53198027  0.96019152  0.07100266     0.33800
H1633       H  0.45648999  0.87247613  0.08460332     0.25600
H1634       H  0.53768690  0.94557501  0.01279958     0.31600
H1635       H  0.55763698  0.96911602  0.04388033     0.37500
H1636       H  0.46804642  0.87320179  0.13888703     0.31900
H1637       H  0.50965684  0.88843849  0.16458909     0.30800
H1638       H  0.56640211  0.94052709  0.15697771     0.32500
H1639       H  0.59110052  0.97443362  0.10211729     0.31500
H1640       H  0.49203712  0.86361740  0.09127048     0.35400
H1641       H  0.51999211  0.87161714  0.05249234     0.28200
H1642       H  0.49762207  0.96298571  0.12517304     0.32400
H1643       H  0.55759787  0.98106032  0.10671261     0.35300
H1644       H  0.52361946  0.90032558  0.18290743     0.27900
H1645       H  0.53948769  0.87712248  0.05340065     0.40700
H1646       H  0.48875193  0.91707609  0.01428238     0.30800
H1647       H  0.46456090  0.88882997  0.06851043     0.38400
H1648       H  0.58341948  0.95930397  0.12038507     0.30300
H1649       H  0.51955067  0.94126542  0.00373305     0.30300
H1650       H  0.51692145  0.97548928  0.11863487     0.30600
Zr1651     Zr  0.57343397  0.06874740  0.38606866     2.17500
O1652       O  0.54783931  0.04375499  0.37057218    -0.51800
O1653       O  0.55739260  0.08259609  0.37365643    -0.75000
O1654       O  0.55165941  0.05298788  0.41658634    -0.81700
O1655       O  0.59827872  0.07004998  0.32952382    -0.83500
O1656       O  0.56381510  0.06396240  0.45230870    -0.79100
O1657       O  0.57228103  0.05606768  0.34746346    -0.90800
O1658       O  0.57387126  0.11120657  0.37935027    -0.76700
O1659       O  0.58065641  0.09060539  0.41495033    -0.86200
O1660       O  0.59329411  0.09507295  0.36715561    -0.85900
O1661       O  0.58563504  0.06109474  0.41868201    -0.72700
O1662       O  0.59757595  0.06592096  0.37495179    -0.84800
Zr1663     Zr  0.63783302  0.10684013  0.41807296     2.26400
Zr1664     Zr  0.59379771  0.08389919  0.44681701     2.06300
Zr1665     Zr  0.61760346  0.09248136  0.35656621     2.10000
Zr1666     Zr  0.60089222  0.11668671  0.39657459     1.78800
O1667       O  0.63466882  0.08350862  0.33383016    -0.93600
O1668       O  0.58888685  0.12820179  0.42494658    -0.41400
O1669       O  0.62523113  0.11427606  0.38583377    -0.78000
O1670       O  0.61418387  0.11062704  0.42948566    -0.96700
O1671       O  0.61763279  0.08071719  0.43635779    -0.90000
O1672       O  0.63018232  0.08524154  0.38859242    -0.92900
C1673       C  0.55994500  0.09791359  0.37266740     1.00900
C1674       C  0.58245751  0.05828671  0.33013864     1.13800
C1675       C  0.55106256  0.05382249  0.43937055     1.04600
O1676       O  0.58431317  0.10161092  0.46670247    -0.95000
O1677       O  0.61499125  0.09637151  0.47785519    -0.90800
O1678       O  0.64143020  0.10820918  0.46135154    -0.83900
C1679       C  0.63132616  0.10389704  0.47936677     1.11200
O1680       O  0.59051943  0.02891819  0.39980331    -0.97000
Zr1681     Zr  0.61018416  0.05917694  0.40745092     1.88900
O1682       O  0.65611566  0.09417501  0.42248209    -0.73600
O1683       O  0.58915067  0.06687106  0.48272037    -0.52900
O1684       O  0.60419128  0.04268913  0.44408266    -0.97600
O1685       O  0.62233218  0.04799201  0.37874176    -0.54800
O1686       O  0.63776696  0.06545315  0.42229496    -0.74200
C1687       C  0.65269380  0.07860243  0.42463109     0.98200
O1688       O  0.65959487  0.13603808  0.42874574    -0.63000
O1689       O  0.61496007  0.10719960  0.32179874    -0.57800
O1690       O  0.65936668  0.12352197  0.38856382    -0.94500
O1691       O  0.64669438  0.11682871  0.35213322    -0.92900
O1692       O  0.61012906  0.13555553  0.36213178    -0.93200
O1693       O  0.61975443  0.14649294  0.40748443    -0.92000
C1694       C  0.65958086  0.12560488  0.36594671     1.17000
H1695       H  0.58845454  0.09718818  0.35317576     0.33000
H1696       H  0.61798569  0.11966035  0.44118387     0.43800
H1697       H  0.64001026  0.08480196  0.38280554     0.37300
H1698       H  0.57741330  0.05018502  0.42539142     0.33800
H1699       H  0.58595774  0.13558440  0.41535712     0.25600
H1700       H  0.58344913  0.07081705  0.49401746     0.31600
H1701       H  0.59200142  0.03854755  0.44765384     0.37500
H1702       H  0.61708012  0.13203856  0.35266734     0.31900
H1703       H  0.62664997  0.11679971  0.31870453     0.30800
H1704       H  0.62947536  0.07112928  0.33720968     0.32500
H1705       H  0.61415599  0.04372159  0.36529545     0.31500
H1706       H  0.63010855  0.14682754  0.41395688     0.35400
H1707       H  0.65436429  0.14308710  0.42479504     0.28200
H1708       H  0.53813998  0.04548109  0.37458398     0.32400
H1709       H  0.58176268  0.02876864  0.38905497     0.35300
H1710       H  0.61261763  0.09928267  0.30830753     0.27900
H1711       H  0.66065414  0.13666381  0.44626710     0.40700
H1712       H  0.59491882  0.11166864  0.47258355     0.30800
H1713       H  0.57767297  0.11833526  0.42946937     0.38400
H1714       H  0.62139260  0.03760787  0.38617940     0.30300
H1715       H  0.58036154  0.05498051  0.47870030     0.30300
H1716       H  0.54615909  0.03392317  0.38040103     0.30600
Zr1717     Zr  0.80728426  0.09046975  0.05384464     2.17500
O1718       O  0.80859550  0.11698630  0.04123777    -0.51800
O1719       O  0.83731733  0.10548567  0.04277231    -0.75000
O1720       O  0.81530024  0.11164757  0.08563486    -0.81700
O1721       O  0.78362862  0.06825102  0.99630710    -0.83500
O1722       O  0.81564902  0.09903534  0.12032479    -0.79100
O1723       O  0.79814358  0.09407669  0.01472234    -0.90800
O1724       O  0.84810261  0.08772487  0.04692531    -0.76700
O1725       O  0.82069639  0.08122924  0.08188341    -0.86200
O1726       O  0.81218715  0.07013250  0.03346526    -0.85900
O1727       O  0.78691921  0.07858041  0.08570168    -0.72700
O1728       O  0.77966251  0.06777329  0.04175957    -0.84800
Zr1729     Zr  0.77736706  0.02518414  0.08321963     2.26400
Zr1730     Zr  0.80024149  0.06870974  0.11325333     2.06300
Zr1731     Zr  0.78454495  0.04706235  0.02226413     2.10000
Zr1732     Zr  0.82495828  0.06046344  0.06195263     1.78800
O1733       O  0.75938983  0.03350090  0.99675444    -0.93600
O1734       O  0.84773679  0.06792965  0.09086071    -0.41400
O1735       O  0.79736692  0.03747731  0.05096961    -0.78000
O1736       O  0.80542370  0.04784483  0.09489874    -0.96700
O1737       O  0.77265609  0.04593835  0.10227371    -0.90000
O1738       O  0.76444980  0.03443070  0.05406682    -0.92900
C1739       C  0.84957791  0.10223830  0.04146812     1.00900
C1740       C  0.78954491  0.08450439  0.99719608     1.13800
C1741       C  0.81839135  0.11207966  0.10800655     1.04600
O1742       O  0.82279355  0.07402246  0.14156863    -0.95000
O1743       O  0.78926385  0.04673459  0.14308293    -0.90800
O1744       O  0.77598260  0.02027034  0.12643986    -0.83900
C1745       C  0.78091311  0.03039226  0.14453155     1.11200
O1746       O  0.75056225  0.07613604  0.07005437    -0.97000
Zr1747     Zr  0.75976518  0.05508908  0.07359962     1.88900
O1748       O  0.74633997  0.00830465  0.08908793    -0.73600
O1749       O  0.78562277  0.07721182  0.14180328    -0.52900
O1750       O  0.74829217  0.05975117  0.11020854    -0.97600
O1751       O  0.73922233  0.04918235  0.04172932    -0.54800
O1752       O  0.73670267  0.02697549  0.08442798    -0.74200
C1753       C  0.73429085  0.01197503  0.08870300     0.98200
O1754       O  0.78437735  0.00298342  0.09212003    -0.63000
O1755       O  0.80334738  0.04858743  0.99007931    -0.57800
O1756       O  0.77103057  0.00388100  0.05246374    -0.94500
O1757       O  0.77632180  0.01700543  0.01638752    -0.92900
O1758       O  0.83216833  0.05070151  0.02572801    -0.93200
O1759       O  0.83371386  0.03925449  0.06793433    -0.92000
C1760       C  0.77205622  0.00381495  0.02964665     1.17000
H1761       H  0.81933150  0.07511206  0.01968140     0.33000
H1762       H  0.81030151  0.04353632  0.10644387     0.43800
H1763       H  0.75393871  0.02501636  0.04791736     0.37300
H1764       H  0.78504178  0.08717543  0.09295376     0.33800
H1765       H  0.85848853  0.07424787  0.08167810     0.25600
H1766       H  0.77353189  0.06792053  0.14128250     0.31600
H1767       H  0.73613561  0.05058613  0.11063249     0.37500
H1768       H  0.84073896  0.06125544  0.01755696     0.31900
H1769       H  0.79816452  0.03678421  0.98381401     0.30800
H1770       H  0.76383646  0.03265396  0.98103803     0.32500
H1771       H  0.73076193  0.03682313  0.04307212     0.31500
H1772       H  0.82375147  0.02951064  0.07569275     0.35400
H1773       H  0.79510051  0.00882609  0.10147465     0.28200
H1774       H  0.82029226  0.12631080  0.04515103     0.32400
H1775       H  0.76117802  0.08704383  0.06660505     0.35300
H1776       H  0.80160301  0.05508073  0.97726147     0.27900
H1777       H  0.77556438  0.99515448  0.10350602     0.40700
H1778       H  0.83323596  0.08392990  0.13501921     0.30800
H1779       H  0.84749531  0.07671169  0.10108848     0.38400
H1780       H  0.74557691  0.05014977  0.02693473     0.30300
H1781       H  0.78978392  0.07595108  0.15754943     0.30300
H1782       H  0.80091701  0.11864936  0.05207401     0.30600
Zr1783     Zr  0.73655988  0.14948523  0.78304665     2.17500
O1784       O  0.76162018  0.14887080  0.79804136    -0.51800
O1785       O  0.75396485  0.18029785  0.79049046    -0.75000
O1786       O  0.75753412  0.15397323  0.75196855    -0.81700
O1787       O  0.71277347  0.13102595  0.84208718    -0.83500
O1788       O  0.74435787  0.14862205  0.71614141    -0.79100
O1789       O  0.73840873  0.14125280  0.82351523    -0.90800
O1790       O  0.73846651  0.19259988  0.77951008    -0.76700
O1791       O  0.72915657  0.16137261  0.75075189    -0.86200
O1792       O  0.71810230  0.15877801  0.79936549    -0.85900
O1793       O  0.72267702  0.12634867  0.75489054    -0.72700
O1794       O  0.71198101  0.12450370  0.79876173    -0.84800
Zr1795     Zr  0.67171566  0.12217384  0.75277909     2.26400
Zr1796     Zr  0.71466142  0.13853166  0.72310746     2.06300
Zr1797     Zr  0.69332056  0.13367322  0.81421902     2.10000
Zr1798     Zr  0.71043457  0.17017411  0.76649845     1.78800
O1799       O  0.67785065  0.11354364  0.84613999    -0.93600
O1800       O  0.72396852  0.19071984  0.73428745    -0.41400
O1801       O  0.68546147  0.14516236  0.78136046    -0.78000
O1802       O  0.69587906  0.14783318  0.73751951    -0.96700
O1803       O  0.69057295  0.11313664  0.73796919    -0.90000
O1804       O  0.67914597  0.11085312  0.78622575    -0.92900
C1805       C  0.75221912  0.19345574  0.78736781     1.00900
C1806       C  0.72851199  0.13464804  0.84154282     1.13800
C1807       C  0.75758627  0.15326083  0.72911473     1.04600
O1808       O  0.72297305  0.16266055  0.69635603    -0.95000
O1809       O  0.69307458  0.12888300  0.69279400    -0.90800
O1810       O  0.66688681  0.11827288  0.70968182    -0.83900
C1811       C  0.67679983  0.12198998  0.69148764     1.11200
O1812       O  0.71945219  0.09415054  0.78107038    -0.97000
Zr1813     Zr  0.69785101  0.10174581  0.77110355     1.88900
O1814       O  0.65293139  0.09109381  0.75083273    -0.73600
O1815       O  0.71998075  0.12156789  0.69435915    -0.52900
O1816       O  0.69896864  0.08306069  0.74084875    -0.97600
O1817       O  0.69075139  0.08442228  0.80709561    -0.54800
O1818       O  0.66853999  0.07928563  0.76395612    -0.74200
C1819       C  0.65460528  0.07819460  0.75643449     0.98200
O1820       O  0.65276460  0.13089632  0.73443469    -0.63000
O1821       O  0.69764150  0.15675400  0.84088155    -0.57800
O1822       O  0.65025461  0.11862734  0.78195170    -0.94500
O1823       O  0.66357561  0.12708525  0.81782472    -0.92900
O1824       O  0.70453719  0.18571143  0.79688126    -0.93200
O1825       O  0.69151006  0.18013958  0.75212869    -0.92000
C1826       C  0.65033427  0.12168387  0.80428743     1.17000
H1827       H  0.72369562  0.16709944  0.81180564     0.33000
H1828       H  0.69220204  0.15223816  0.72447186     0.43800
H1829       H  0.66914273  0.10154583  0.79360775     0.37300
H1830       H  0.73053583  0.12282854  0.74925665     0.33800
H1831       H  0.73473936  0.19074434  0.73088548     0.25600
H1832       H  0.70918854  0.11042683  0.69370387     0.31600
H1833       H  0.69576140  0.07223766  0.74932763     0.37500
H1834       H  0.69387109  0.17695150  0.80461707     0.31900
H1835       H  0.68804259  0.15129982  0.85231069     0.30800
H1836       H  0.67454450  0.10216676  0.83943559     0.32500
H1837       H  0.67811657  0.07839075  0.80818175     0.31500
H1838       H  0.67995533  0.17120002  0.75727345     0.35400
H1839       H  0.64188959  0.12530659  0.74341386     0.28200
H1840       H  0.77157831  0.16016258  0.79399283     0.32400
H1841       H  0.72806767  0.10398119  0.79049063     0.35300
H1842       H  0.70787077  0.15922900  0.85037034     0.27900
H1843       H  0.65801500  0.14322439  0.73819083     0.40700
H1844       H  0.73239017  0.16327250  0.68664032     0.30800
H1845       H  0.71669229  0.18524788  0.72019547     0.38400
H1846       H  0.69472562  0.09278259  0.82031206     0.30300
H1847       H  0.72065699  0.12699370  0.67877399     0.30300
H1848       H  0.76282893  0.14051624  0.78804672     0.30600
Zr1849     Zr  0.71924122  0.91946569  0.44904585     2.17500
O1850       O  0.69745029  0.89284207  0.46730601    -0.51800
O1851       O  0.73488853  0.90524107  0.46172300    -0.75000
O1852       O  0.70319988  0.89705097  0.41938414    -0.81700
O1853       O  0.72159617  0.94520502  0.50552298    -0.83500
O1854       O  0.71546058  0.90726522  0.38342572    -0.79100
O1855       O  0.70579712  0.91983247  0.48639683    -0.90800
O1856       O  0.76307658  0.92257138  0.45383475    -0.76700
O1857       O  0.74089121  0.92700724  0.41989346    -0.86200
O1858       O  0.74531377  0.94097073  0.46673182    -0.85900
O1859       O  0.70984416  0.92949497  0.41574222    -0.72700
O1860       O  0.71521310  0.94305864  0.45878269    -0.84800
Zr1861     Zr  0.75361434  0.98274766  0.41247739     2.26400
Zr1862     Zr  0.73232455  0.93784593  0.38716393     2.06300
Zr1863     Zr  0.74145026  0.96476249  0.47574826     2.10000
Zr1864     Zr  0.76670870  0.94889013  0.43697322     1.78800
O1865       O  0.72919544  0.97903706  0.49826174    -0.93600
O1866       O  0.77979054  0.93865455  0.40843956    -0.41400
O1867       O  0.76272347  0.97252084  0.44577254    -0.78000
O1868       O  0.75883385  0.95975826  0.40310809    -0.96700
O1869       O  0.72755561  0.96101781  0.39578141    -0.90000
O1870       O  0.73251168  0.97521302  0.44289728    -0.92900
C1871       C  0.75047099  0.90853218  0.46155464     1.00900
C1872       C  0.70892707  0.92977743  0.50436675     1.13800
C1873       C  0.70486171  0.89524900  0.39701231     1.04600
O1874       O  0.74992646  0.92924861  0.36502805    -0.95000
O1875       O  0.74517258  0.95749123  0.35467778    -0.90800
O1876       O  0.75657196  0.98456421  0.36881671    -0.83900
C1877       C  0.75291349  0.97372849  0.35176368     1.11200
O1878       O  0.67743068  0.93185609  0.43662162    -0.97000
Zr1879     Zr  0.70648479  0.95342947  0.42575032     1.88900
O1880       O  0.73892923  0.99903535  0.40699949    -0.73600
O1881       O  0.71146318  0.93111840  0.35547822    -0.52900
O1882       O  0.68912512  0.94538024  0.38977492    -0.97600
O1883       O  0.69036711  0.96006313  0.45435785    -0.54800
O1884       O  0.71053599  0.98076393  0.41254693    -0.74200
C1885       C  0.72329297  0.99559857  0.40781668     0.98200
O1886       O  0.78142919  0.00599114  0.39970518    -0.63000
O1887       O  0.76108956  0.96792840  0.50770504    -0.57800
O1888       O  0.77114890  0.00558040  0.44008332    -0.94500
O1889       O  0.76346895  0.99503296  0.47758815    -0.92900
O1890       O  0.78494125  0.95719465  0.47209633    -0.93200
O1891       O  0.79594271  0.97084897  0.42760849    -0.92000
C1892       C  0.77251909  0.00716260  0.46280913     1.17000
H1893       H  0.74800002  0.93675147  0.48092726     0.33000
H1894       H  0.76775586  0.96350907  0.39120606     0.43800
H1895       H  0.73158587  0.98488254  0.44818148     0.37300
H1896       H  0.69900755  0.92078701  0.40938645     0.33800
H1897       H  0.78793385  0.93676576  0.41794724     0.25600
H1898       H  0.71376128  0.92426982  0.34389096     0.31600
H1899       H  0.69688174  0.95299904  0.37720923     0.37500
H1900       H  0.78537871  0.96776812  0.47781932     0.31900
H1901       H  0.75869091  0.97393574  0.52051735     0.30800
H1902       H  0.73617789  0.98308922  0.51292994     0.32500
H1903       H  0.68905154  0.96932470  0.44708705     0.31500
H1904       H  0.79761173  0.98124557  0.43591030     0.35400
H1905       H  0.78670243  0.00039880  0.39070910     0.28200
H1906       H  0.69949895  0.88375530  0.46114616     0.32400
H1907       H  0.67881632  0.92349094  0.44638170     0.35300
H1908       H  0.75684062  0.95624757  0.51399149     0.27900
H1909       H  0.77904568  0.01256229  0.38771369     0.40700
H1910       H  0.74511251  0.92689676  0.34874000     0.30800
H1911       H  0.77057574  0.92699954  0.40415200     0.38400
H1912       H  0.69833565  0.96558175  0.46781536     0.30300
H1913       H  0.70026346  0.92292365  0.36257564     0.30300
H1914       H  0.68645804  0.89043411  0.46008939     0.30600
Zr1915     Zr  0.58738724  0.85179896  0.71358648     2.17500
O1916       O  0.61318719  0.85302279  0.69800887    -0.51800
O1917       O  0.57306544  0.82139284  0.70424155    -0.75000
O1918       O  0.60359935  0.84583103  0.74345255    -0.81700
O1919       O  0.58150620  0.87139352  0.65575221    -0.83500
O1920       O  0.59601018  0.85016163  0.78010977    -0.79100
O1921       O  0.59714775  0.86094026  0.67301516    -0.90800
O1922       O  0.54565634  0.80862580  0.71744403    -0.76700
O1923       O  0.56876412  0.83996413  0.74671459    -0.86200
O1924       O  0.55926648  0.84284863  0.69875333    -0.85900
O1925       O  0.59771579  0.87436501  0.74263733    -0.72700
O1926       O  0.58823491  0.87720189  0.69923131    -0.84800
Zr1927     Zr  0.55164345  0.87980514  0.74690784     2.26400
Zr1928     Zr  0.57807722  0.86255096  0.77507872     2.06300
Zr1929     Zr  0.56012113  0.86839454  0.68490735     2.10000
Zr1930     Zr  0.54090869  0.83143455  0.73246656     1.78800
O1931       O  0.56325878  0.88802517  0.65303391    -0.93600
O1932       O  0.53406265  0.81130092  0.76520083    -0.41400
O1933       O  0.54135986  0.85681976  0.71826742    -0.78000
O1934       O  0.54973845  0.85380836  0.76175847    -0.96700
O1935       O  0.57954133  0.88822195  0.76120243    -0.90000
O1936       O  0.57011102  0.89112254  0.71326850    -0.92900
C1937       C  0.55831906  0.80811601  0.70780798     1.00900
C1938       C  0.59372165  0.86795895  0.65556993     1.13800
C1939       C  0.60421885  0.84555075  0.76630333     1.04600
O1940       O  0.56355586  0.83997765  0.80447482    -0.95000
O1941       O  0.56821853  0.87403562  0.80595088    -0.90800
O1942       O  0.55046781  0.88245957  0.79011535    -0.83900
C1943       C  0.55815955  0.88013605  0.80776179     1.11200
O1944       O  0.62762368  0.90820314  0.71891387    -0.97000
Zr1945     Zr  0.59798381  0.89944786  0.72796796     1.88900
O1946       O  0.56512622  0.91109870  0.74973420    -0.73600
O1947       O  0.60259471  0.87973594  0.80067713    -0.52900
O1948       O  0.61581675  0.91478773  0.76194613    -0.97600
O1949       O  0.61052633  0.91832723  0.69378737    -0.54800
O1950       O  0.59218854  0.92233431  0.73560805    -0.74200
C1951       C  0.57976948  0.92382669  0.74374444     0.98200
O1952       O  0.52313486  0.87313217  0.75951632    -0.63000
O1953       O  0.54083262  0.84531077  0.65853935    -0.57800
O1954       O  0.53381422  0.88440948  0.71921197    -0.94500
O1955       O  0.53812048  0.87660948  0.68263908    -0.92900
O1956       O  0.51724624  0.81727711  0.70451272    -0.93200
O1957       O  0.51285412  0.82181036  0.74986262    -0.92000
C1958       C  0.53074470  0.88208813  0.69683431     1.17000
H1959       H  0.55608823  0.83463679  0.68603738     0.33000
H1960       H  0.54192245  0.84953403  0.77510877     0.43800
H1961       H  0.56966892  0.90066712  0.70625508     0.37300
H1962       H  0.60909860  0.87743910  0.74781801     0.33800
H1963       H  0.52672840  0.79986802  0.75804794     0.25600
H1964       H  0.60454667  0.89151047  0.79934192     0.31600
H1965       H  0.62360451  0.92650290  0.75597899     0.37500
H1966       H  0.52255408  0.81650244  0.68954331     0.31900
H1967       H  0.53023543  0.84599073  0.65825260     0.30800
H1968       H  0.57324751  0.89909724  0.65776010     0.32500
H1969       H  0.60804855  0.92773906  0.69602694     0.31500
H1970       H  0.51214356  0.83235591  0.75146176     0.35400
H1971       H  0.51945309  0.86374070  0.77122245     0.28200
H1972       H  0.61221267  0.84187346  0.70190822     0.32400
H1973       H  0.62748484  0.89741849  0.71520368     0.35300
H1974       H  0.54583488  0.84913129  0.64250012     0.27900
H1975       H  0.52485499  0.88314977  0.76889338     0.40700
H1976       H  0.57178023  0.84331965  0.81782266     0.30800
H1977       H  0.54492066  0.81159694  0.76893172     0.38400
H1978       H  0.60326980  0.91171839  0.68017366     0.30300
H1979       H  0.59830213  0.87613511  0.81707731     0.30300
H1980       H  0.62274715  0.86154655  0.70791636     0.30600
Zr1981     Zr  0.17529134  0.91774902  0.94696970     2.17500
O1982       O  0.18212326  0.89511531  0.95368044    -0.51800
O1983       O  0.14525968  0.89940290  0.95711987    -0.75000
O1984       O  0.18155131  0.91464150  0.98846107    -0.81700
O1985       O  0.17265860  0.91018400  0.88000996    -0.83500
O1986       O  0.19308952  0.94027881  0.00743706    -0.79100
O1987       O  0.16939848  0.89686915  0.91552384    -0.90800
O1988       O  0.13169445  0.91442509  0.95047655    -0.76700
O1989       O  0.16716987  0.93597092  0.96664391    -0.86200
O1990       O  0.16020624  0.92458908  0.91822327    -0.85900
O1991       O  0.20165686  0.94234979  0.95917225    -0.72700
O1992       O  0.19470949  0.93144109  0.91451681    -0.84800
Zr1993     Zr  0.19890006  0.98220865  0.91804545     2.26400
Zr1994     Zr  0.19335781  0.96082296  0.97849352     2.06300
Zr1995     Zr  0.17981824  0.93936101  0.88666021     2.10000
Zr1996     Zr  0.15260319  0.94311097  0.93750267     1.78800
O1997       O  0.19247061  0.93449832  0.85146156    -0.93600
O1998       O  0.13925044  0.94733115  0.97248082    -0.41400
O1999       O  0.17211264  0.95815630  0.90558578    -0.78000
O2000       O  0.17846182  0.96811327  0.94955832    -0.96700
O2001       O  0.21343895  0.97472794  0.94676840    -0.90000
O2002       O  0.20636778  0.96359248  0.89831771    -0.92900
C2003       C  0.13179128  0.90079838  0.95671189     1.00900
C2004       C  0.16939375  0.89707365  0.89263079     1.13800
C2005       C  0.18842862  0.92424954  0.00675224     1.04600
O2006       O  0.17324506  0.95893677  0.00880923    -0.95000
O2007       O  0.19988228  0.99035845  0.98524902    -0.90800
O2008       O  0.20305992  0.00282564  0.94902589    -0.83900
C2009       C  0.20275491  0.00314427  0.97188969     1.11200
O2010       O  0.23099000  0.93589257  0.93245777    -0.97000
Zr2011     Zr  0.22072057  0.95598002  0.92676551     1.88900
O2012       O  0.22990377  0.00103759  0.91559159    -0.73600
O2013       O  0.21868098  0.97549174  0.00360453    -0.52900
O2014       O  0.24284241  0.96359266  0.95680150    -0.97600
O2015       O  0.23150054  0.95199781  0.88902050    -0.54800
O2016       O  0.24251173  0.98468751  0.91636223    -0.74200
C2017       C  0.24304598  0.99908695  0.91471498     0.98200
O2018       O  0.19196965  0.00345046  0.90346588    -0.63000
O2019       O  0.15238194  0.92852484  0.86659457    -0.57800
O2020       O  0.19818332  0.98726051  0.87529573    -0.94500
O2021       O  0.18614463  0.96134039  0.85709407    -0.92900
O2022       O  0.13222396  0.93362800  0.90469109    -0.93200
O2023       O  0.13983759  0.96109583  0.93227855    -0.92000
C2024       C  0.19272849  0.97766748  0.85669157     1.17000
H2025       H  0.15025452  0.91444002  0.91232542     0.33000
H2026       H  0.17494546  0.97570008  0.95624766     0.43800
H2027       H  0.21367428  0.96907900  0.88482264     0.37300
H2028       H  0.20786940  0.93911755  0.96994032     0.33800
H2029       H  0.13820102  0.93855185  0.98398857     0.25600
H2030       H  0.22446894  0.96869965  0.00200252     0.31600
H2031       H  0.25377573  0.96938395  0.94794318     0.37500
H2032       H  0.12326495  0.92183823  0.90886346     0.31900
H2033       H  0.15365778  0.93806419  0.85645785     0.30800
H2034       H  0.20469990  0.94343995  0.85212694     0.32500
H2035       H  0.22580392  0.93944382  0.88678701     0.31500
H2036       H  0.14477156  0.96736506  0.91725053     0.35400
H2037       H  0.18318853  0.00290040  0.91452004     0.28200
H2038       H  0.17402943  0.88749449  0.96596098     0.32400
H2039       H  0.22125299  0.92572049  0.93985213     0.35300
H2040       H  0.15185363  0.91991158  0.85522458     0.27900
H2041       H  0.20228638  0.01469670  0.90652183     0.40700
H2042       H  0.17757171  0.95686009  0.02388783     0.30800
H2043       H  0.14811284  0.95830571  0.97942126     0.38400
H2044       H  0.24365733  0.95566415  0.89204526     0.30300
H2045       H  0.22631482  0.98632010  0.99515909     0.30300
H2046       H  0.19352554  0.90069967  0.96139718     0.30600
Zr2047     Zr  0.24172854  0.86075061  0.22255308     2.17500
O2048       O  0.21969353  0.86850457  0.21659740    -0.51800
O2049       O  0.22305279  0.83078063  0.21159679    -0.75000
O2050       O  0.23800453  0.86570006  0.18096010    -0.81700
O2051       O  0.23376363  0.85774690  0.28933761    -0.83500
O2052       O  0.26337913  0.87620429  0.16159281    -0.79100
O2053       O  0.22039185  0.85371839  0.25367114    -0.90800
O2054       O  0.23774790  0.81690709  0.21833297    -0.76700
O2055       O  0.25956117  0.85211976  0.20289539    -0.86200
O2056       O  0.24843695  0.84578642  0.25154859    -0.85900
O2057       O  0.26652707  0.88693450  0.20962948    -0.72700
O2058       O  0.25584855  0.88078487  0.25435246    -0.84800
Zr2059     Zr  0.30596179  0.88324122  0.25105774     2.26400
Zr2060     Zr  0.28457823  0.87799499  0.19051223     2.06300
Zr2061     Zr  0.26323750  0.86583824  0.28264952     2.10000
Zr2062     Zr  0.26637748  0.83742469  0.23215456     1.78800
O2063       O  0.26192887  0.88392346  0.31376710    -0.93600
O2064       O  0.27088632  0.82413009  0.19730438    -0.41400
O2065       O  0.28136755  0.85699417  0.26411480    -0.78000
O2066       O  0.29151035  0.86293063  0.21949196    -0.96700
O2067       O  0.29900950  0.89803756  0.22197414    -0.90000
O2068       O  0.28804488  0.89170532  0.27044127    -0.92900
C2069       C  0.22430281  0.81720568  0.21164025     1.00900
C2070       C  0.22052759  0.85377600  0.27654899     1.13800
C2071       C  0.24738508  0.87163449  0.16230412     1.04600
O2072       O  0.28402723  0.85885488  0.15962734    -0.95000
O2073       O  0.31445274  0.88525079  0.18419049    -0.90800
O2074       O  0.32675020  0.88784602  0.22042112    -0.83900
C2075       C  0.32722653  0.88805697  0.19757590     1.11200
O2076       O  0.26048805  0.91626055  0.23842478    -0.97000
Zr2077     Zr  0.28097905  0.90632283  0.24165769     1.88900
O2078       O  0.32592037  0.91407820  0.25428475    -0.73600
O2079       O  0.29813327  0.90294384  0.16454694    -0.52900
O2080       O  0.28851597  0.92828323  0.21146225    -0.97600
O2081       O  0.28042800  0.92074430  0.27808671    -0.54800
O2082       O  0.31059826  0.92751726  0.24868426    -0.74200
C2083       C  0.32459634  0.92756320  0.25248767     0.98200
O2084       O  0.32723580  0.87497610  0.26015955    -0.63000
O2085       O  0.25106439  0.84037083  0.30763528    -0.57800
O2086       O  0.31035751  0.88256111  0.29417380    -0.94500
O2087       O  0.28436843  0.87016622  0.31221497    -0.92900
O2088       O  0.25543455  0.81467836  0.26180559    -0.93200
O2089       O  0.28542259  0.82623598  0.24022853    -0.92000
C2090       C  0.30067192  0.87694060  0.31269458     1.17000
H2091       H  0.23818056  0.83597570  0.25753442     0.33000
H2092       H  0.29904154  0.85940558  0.21265358     0.43800
H2093       H  0.29391433  0.89900826  0.28377504     0.37300
H2094       H  0.26326994  0.89297557  0.19860885     0.33800
H2095       H  0.26133432  0.82173457  0.18638786     0.25600
H2096       H  0.29032222  0.90765226  0.16455862     0.31600
H2097       H  0.29599694  0.92660217  0.20029056     0.37500
H2098       H  0.24552788  0.81475164  0.26915670     0.31900
H2099       H  0.25984761  0.83688142  0.30804287     0.30800
H2100       H  0.27381948  0.89346089  0.31578586     0.32500
H2101       H  0.28337672  0.93239301  0.27292587     0.31500
H2102       H  0.29709870  0.83628113  0.23901562     0.35400
H2103       H  0.33568480  0.88405835  0.27073513     0.28200
H2104       H  0.21146010  0.86005836  0.20514160     0.32400
H2105       H  0.24985343  0.90619559  0.23261519     0.35300
H2106       H  0.25113103  0.84462264  0.32388521     0.27900
H2107       H  0.32126524  0.86468347  0.27034996     0.40700
H2108       H  0.27179397  0.85009798  0.15782519     0.30800
H2109       H  0.28113901  0.83339415  0.18939094     0.38400
H2110       H  0.29048768  0.92260405  0.28748953     0.30300
H2111       H  0.30832179  0.91147211  0.17345742     0.30300
H2112       H  0.22533334  0.87952711  0.20789354     0.30600
Zr2113     Zr  0.40348547  0.94188313  0.61844456     2.17500
O2114       O  0.42850094  0.96943195  0.62823774    -0.51800
O2115       O  0.41986503  0.92820623  0.62895982    -0.75000
O2116       O  0.40575912  0.94878441  0.66050461    -0.81700
O2117       O  0.41316588  0.95053082  0.55302262    -0.83500
O2118       O  0.37974114  0.93426112  0.67838260    -0.79100
O2119       O  0.42571668  0.95882692  0.58921306    -0.90800
O2120       O  0.40502316  0.90026066  0.61820821    -0.76700
O2121       O  0.38406506  0.91474891  0.63553049    -0.86200
O2122       O  0.39677870  0.92134553  0.58774810    -0.85900
O2123       O  0.37928083  0.94421518  0.63116418    -0.72700
O2124       O  0.39093985  0.95027906  0.58739217    -0.84800
Zr2125     Zr  0.33987582  0.90419936  0.58512177     2.26400
Zr2126     Zr  0.35957419  0.91662783  0.64746795     2.06300
Zr2127     Zr  0.38369330  0.92918243  0.55713726     2.10000
Zr2128     Zr  0.37705684  0.89437803  0.60448287     1.78800
O2129       O  0.38895554  0.95028500  0.52634487    -0.93600
O2130       O  0.37110235  0.87555944  0.63864142    -0.41400
O2131       O  0.36398352  0.90163087  0.57272379    -0.78000
O2132       O  0.35231687  0.89565843  0.61657930    -0.96700
O2133       O  0.34662648  0.92436628  0.61646814    -0.90000
O2134       O  0.35943690  0.93135781  0.56863312    -0.92900
C2135       C  0.41823462  0.91330994  0.62699874     1.00900
C2136       C  0.42606746  0.95958422  0.56635523     1.13800
C2137       C  0.39589397  0.94512306  0.67860987     1.04600
O2138       O  0.35775257  0.89698420  0.67858026    -0.95000
O2139       O  0.32940190  0.89511866  0.65163041    -0.90800
O2140       O  0.31786450  0.88803837  0.61453999    -0.83900
C2141       C  0.31684332  0.88654248  0.63730466     1.11200
O2142       O  0.38675427  0.98178687  0.60408098    -0.97000
Zr2143     Zr  0.36615103  0.95138691  0.59986281     1.88900
O2144       O  0.32187743  0.91716095  0.58090057    -0.73600
O2145       O  0.34657206  0.92947247  0.67155964    -0.52900
O2146       O  0.36258951  0.96796972  0.63113571    -0.97600
O2147       O  0.36486709  0.96528486  0.56337235    -0.54800
O2148       O  0.33622723  0.94331315  0.59834180    -0.74200
C2149       C  0.32277510  0.93090614  0.58895638     0.98200
O2150       O  0.31862224  0.87622517  0.56978260    -0.63000
O2151       O  0.39696585  0.91640396  0.53344683    -0.57800
O2152       O  0.33644244  0.90067453  0.54174700    -0.94500
O2153       O  0.36314183  0.91443316  0.52590235    -0.92900
O2154       O  0.38676758  0.88187275  0.57426437    -0.93200
O2155       O  0.35715620  0.86481784  0.59346107    -0.92000
C2156       C  0.34684341  0.90533000  0.52397388     1.17000
H2157       H  0.40692889  0.92151564  0.58193613     0.33000
H2158       H  0.34408547  0.88438888  0.62230250     0.43800
H2159       H  0.35443606  0.93391687  0.55521888     0.37300
H2160       H  0.38261324  0.95312694  0.64288537     0.33800
H2161       H  0.37660502  0.88333498  0.65229665     0.25600
H2162       H  0.33668900  0.92806530  0.66211015     0.31600
H2163       H  0.35676177  0.95969009  0.64417447     0.37500
H2164       H  0.39926264  0.88972991  0.57301310     0.31900
H2165       H  0.39230795  0.90472400  0.53994205     0.30800
H2166       H  0.37760552  0.94705243  0.51962013     0.32500
H2167       H  0.37678881  0.97159152  0.55746561     0.31500
H2168       H  0.34685809  0.86494046  0.58769923     0.35400
H2169       H  0.31804914  0.86782008  0.58160162     0.28200
H2170       H  0.43485677  0.96699922  0.64053862     0.32400
H2171       H  0.39672025  0.98369929  0.59444318     0.35300
H2172       H  0.39178721  0.91466842  0.51744511     0.27900
H2173       H  0.30751396  0.87585861  0.57114332     0.40700
H2174       H  0.34969953  0.88541621  0.67238179     0.30800
H2175       H  0.35867991  0.87036160  0.64159942     0.38400
H2176       H  0.36240240  0.97427631  0.56866635     0.30300
H2177       H  0.34139513  0.92158358  0.68519846     0.30300
H2178       H  0.42406856  0.97609670  0.63647904     0.30600
Zr2179     Zr  0.46451741  0.06712614  0.88679228     2.17500
O2180       O  0.46221065  0.03938432  0.87952495    -0.51800
O2181       O  0.49454643  0.07955978  0.87593073    -0.75000
O2182       O  0.45718772  0.05714890  0.84593320    -0.81700
O2183       O  0.46591556  0.06099965  0.95390093    -0.83500
O2184       O  0.44519198  0.07080370  0.82705163    -0.79100
O2185       O  0.46846377  0.05073092  0.91821091    -0.90800
O2186       O  0.50750687  0.10837068  0.87975000    -0.76700
O2187       O  0.47121668  0.09288159  0.86629797    -0.86200
O2188       O  0.47996545  0.08963192  0.91455961    -0.85900
O2189       O  0.43734967  0.06396674  0.87539027    -0.72700
O2190       O  0.44560383  0.06125722  0.91988497    -0.84800
Zr2191     Zr  0.43992543  0.10678974  0.91615727     2.26400
Zr2192     Zr  0.44425872  0.09040919  0.85588426     2.06300
Zr2193     Zr  0.46085146  0.08450366  0.94686509     2.10000
Zr2194     Zr  0.48624617  0.11523468  0.89431084     1.78800
O2195       O  0.45018885  0.06980019  0.98470727    -0.93600
O2196       O  0.49665026  0.13188947  0.85784137    -0.41400
O2197       O  0.46735993  0.11048371  0.92723279    -0.78000
O2198       O  0.45965850  0.11337891  0.88350544    -0.96700
O2199       O  0.42502049  0.08423173  0.88841029    -0.90000
O2200       O  0.43362256  0.08108638  0.93635717    -0.92900
C2201       C  0.50773318  0.09462557  0.87464680     1.00900
C2202       C  0.46828382  0.05063137  0.94108413     1.13800
C2203       C  0.45002224  0.05962817  0.82782002     1.04600
O2204       O  0.46083860  0.10779771  0.82223858    -0.95000
O2205       O  0.43528714  0.11159671  0.84938620    -0.90800
O2206       O  0.43390793  0.12208095  0.88550138    -0.83900
C2207       C  0.43266341  0.12164946  0.86271254     1.11200
O2208       O  0.41051064  0.02865651  0.90322459    -0.97000
Zr2209     Zr  0.41894429  0.05862894  0.90852222     1.88900
O2210       O  0.40888964  0.09424833  0.91969153    -0.73600
O2211       O  0.41721053  0.07722939  0.83437078    -0.52900
O2212       O  0.39620577  0.04384367  0.87936950    -0.97600
O2213       O  0.40675483  0.04241295  0.94499237    -0.54800
O2214       O  0.39697683  0.06538001  0.91780505    -0.74200
C2215       C  0.39597962  0.07895011  0.92006018     0.98200
O2216       O  0.44601817  0.13477936  0.93043872    -0.63000
O2217       O  0.48941180  0.10187061  0.96350791    -0.57800
O2218       O  0.44127799  0.11275014  0.95876402    -0.94500
O2219       O  0.45556241  0.10087226  0.97617667    -0.92900
O2220       O  0.51058755  0.12852518  0.92137396    -0.93200
O2221       O  0.49657977  0.14526185  0.90308680    -0.92000
C2222       C  0.44794744  0.10961674  0.97693851     1.17000
H2223       H  0.49016322  0.08972875  0.91995028     0.33000
H2224       H  0.46247536  0.12418105  0.87630560     0.43800
H2225       H  0.42657847  0.07924761  0.95022168     0.37300
H2226       H  0.43106137  0.05427604  0.86501249     0.33800
H2227       H  0.50927218  0.13771658  0.85913631     0.25600
H2228       H  0.42046007  0.08013864  0.81748150     0.31600
H2229       H  0.39405284  0.05278266  0.87285343     0.37500
H2230       H  0.51354891  0.11957348  0.92487669     0.31900
H2231       H  0.49173279  0.11378128  0.96214028     0.30800
H2232       H  0.46005963  0.07532329  0.99572403     0.32500
H2233       H  0.39769028  0.04491348  0.94976139     0.31500
H2234       H  0.48779752  0.14758809  0.89642168     0.35400
H2235       H  0.45504861  0.14315477  0.91976564     0.28200
H2236       H  0.47053874  0.04130868  0.86676706     0.32400
H2237       H  0.41998554  0.02759800  0.91028900     0.35300
H2238       H  0.48798161  0.09946564  0.98078037     0.27900
H2239       H  0.43571254  0.13554804  0.92665726     0.40700
H2240       H  0.46516640  0.11977002  0.82732766     0.30800
H2241       H  0.49378433  0.12329060  0.84513386     0.38400
H2242       H  0.41581173  0.04816579  0.95714975     0.30300
H2243       H  0.41284113  0.06476984  0.83539516     0.30300
H2244       H  0.45079225  0.03203279  0.87232892     0.30600
Zr2245     Zr  0.26069448  0.08811620  0.55807985     2.17500
O2246       O  0.29049333  0.11087389  0.55483650    -0.51800
O2247       O  0.24901909  0.10607594  0.54522954    -0.75000
O2248       O  0.27188884  0.09173071  0.51760824    -0.81700
O2249       O  0.26207209  0.09569060  0.62460293    -0.83500
O2250       O  0.25715105  0.06650416  0.49767281    -0.79100
O2251       O  0.27409823  0.10928883  0.58989730    -0.90800
O2252       O  0.22009759  0.09030220  0.54850432    -0.76700
O2253       O  0.23494019  0.06986303  0.53677658    -0.86200
O2254       O  0.23771497  0.08064607  0.58515388    -0.85900
O2255       O  0.26304880  0.06375310  0.54617885    -0.72700
O2256       O  0.26566091  0.07402609  0.59086561    -0.84800
Zr2257     Zr  0.21910739  0.02326456  0.58545872     2.26400
Zr2258     Zr  0.23684521  0.04528153  0.52551788     2.06300
Zr2259     Zr  0.24207673  0.06593333  0.61722365     2.10000
Zr2260     Zr  0.21218169  0.06216594  0.56425382     1.78800
O2261       O  0.25987201  0.07060189  0.65214550    -0.93600
O2262       O  0.19442735  0.05556280  0.52876059    -0.41400
O2263       O  0.21605709  0.04728508  0.59704160    -0.78000
O2264       O  0.21364998  0.03742056  0.55288339    -0.96700
O2265       O  0.24178165  0.03109458  0.55779073    -0.90000
O2266       O  0.24478092  0.04177128  0.60639429    -0.92900
C2267       C  0.23395897  0.10413619  0.54319276     1.00900
C2268       C  0.27236591  0.10900629  0.61265402     1.13800
C2269       C  0.26900257  0.08231572  0.49907275     1.04600
O2270       O  0.22021052  0.04562054  0.49164577    -0.95000
O2271       O  0.21476744  0.01562622  0.51748704    -0.90800
O2272       O  0.20480641  0.00289712  0.55340053    -0.83900
C2273       C  0.20486690  0.00266177  0.53054461     1.11200
O2274       O  0.29769548  0.07057733  0.57687577    -0.97000
Zr2275     Zr  0.26730199  0.04946241  0.57884517     1.88900
O2276       O  0.23059605  0.00391736  0.58947410    -0.73600
O2277       O  0.25084949  0.03223364  0.50415916    -0.52900
O2278       O  0.28550521  0.04333442  0.55364547    -0.97600
O2279       O  0.27843022  0.04797942  0.61772364    -0.54800
O2280       O  0.25857423  0.01946964  0.57905250    -0.74200
C2281       C  0.24510783  0.00532669  0.58429317     0.98200
O2282       O  0.18994601  0.00169420  0.59614026    -0.63000
O2283       O  0.22424633  0.07458395  0.63873062    -0.57800
O2284       O  0.21293653  0.01810458  0.62831228    -0.94500
O2285       O  0.22611744  0.04410290  0.64638588    -0.92900
O2286       O  0.19941431  0.07369465  0.59132192    -0.93200
O2287       O  0.18205600  0.04294753  0.57314497    -0.92000
C2288       C  0.21681926  0.02776521  0.64686856     1.17000
H2289       H  0.23766561  0.09075852  0.59063389     0.33000
H2290       H  0.20282117  0.02971739  0.54546800     0.43800
H2291       H  0.24618843  0.03612835  0.62011525     0.37300
H2292       H  0.27283136  0.06716589  0.53601145     0.33800
H2293       H  0.19785247  0.06673344  0.52121116     0.25600
H2294       H  0.26303737  0.03909055  0.50880481     0.31600
H2295       H  0.28639107  0.04918950  0.53839013     0.37500
H2296       H  0.20790984  0.08602766  0.59282142     0.31900
H2297       H  0.23105025  0.08058827  0.65298994     0.30800
H2298       H  0.26016859  0.05986384  0.65414690     0.32500
H2299       H  0.28165374  0.05907789  0.62531320     0.31500
H2300       H  0.18204410  0.03723138  0.58819645     0.35400
H2301       H  0.18258372  0.00221458  0.58349144     0.28200
H2302       H  0.29086531  0.11846524  0.54185646     0.32400
H2303       H  0.29815022  0.08172185  0.57548051     0.35300
H2304       H  0.22429122  0.08373749  0.62900386     0.27900
H2305       H  0.18935214  0.99053334  0.59383893     0.40700
H2306       H  0.22151069  0.03842876  0.47950402     0.30800
H2307       H  0.19868481  0.04998247  0.51780475     0.38400
H2308       H  0.28946356  0.04855973  0.61436831     0.30300
H2309       H  0.24680098  0.02102846  0.51200081     0.30300
H2310       H  0.29673639  0.10528164  0.54863836     0.30600
Zr2311     Zr  0.38453020  0.14783811  0.28093789     2.17500
O2312       O  0.35629370  0.14421414  0.28841707    -0.51800
O2313       O  0.39694284  0.17789161  0.29182220    -0.75000
O2314       O  0.37541245  0.14096420  0.32236305    -0.81700
O2315       O  0.37814351  0.14978528  0.21400487    -0.83500
O2316       O  0.39021208  0.12989879  0.34052712    -0.79100
O2317       O  0.36853594  0.15290838  0.24986503    -0.90800
O2318       O  0.42551615  0.19118485  0.28512128    -0.76700
O2319       O  0.41075099  0.15469209  0.30029621    -0.86200
O2320       O  0.40656642  0.16320171  0.25247678    -0.85900
O2321       O  0.38175424  0.12071191  0.29188843    -0.72700
O2322       O  0.37814373  0.12888874  0.24774334    -0.84800
Zr2323     Zr  0.42383054  0.12327065  0.24932135     2.26400
Zr2324     Zr  0.40847758  0.12775033  0.31043243     2.06300
Zr2325     Zr  0.40099325  0.14401598  0.22019354     2.10000
Zr2326     Zr  0.43255539  0.16977529  0.27150561     1.78800
O2327       O  0.38452571  0.13074074  0.18430869    -0.93600
O2328       O  0.44988572  0.18222140  0.30704769    -0.41400
O2329       O  0.42749563  0.15080847  0.23842065    -0.78000
O2330       O  0.43069149  0.14308591  0.28194141    -0.96700
O2331       O  0.40175382  0.10841785  0.27783497    -0.90000
O2332       O  0.39785487  0.11696497  0.23025562    -0.92900
C2333       C  0.41190087  0.19128873  0.29149697     1.00900
C2334       C  0.36829814  0.15274964  0.22696048     1.13800
C2335       C  0.37888305  0.13454322  0.34050469     1.04600
O2336       O  0.42730328  0.14426098  0.34303379    -0.95000
O2337       O  0.42974898  0.11871719  0.31583771    -0.90800
O2338       O  0.43887563  0.11639470  0.27906832    -0.83900
C2339       C  0.43920216  0.11567145  0.30185966     1.11200
O2340       O  0.34621473  0.09456873  0.26564059    -0.97000
Zr2341     Zr  0.37581634  0.10224324  0.25842720     1.88900
O2342       O  0.41085128  0.09224006  0.24304268    -0.73600
O2343       O  0.39516879  0.10055951  0.33163266    -0.52900
O2344       O  0.36039795  0.07801653  0.28515206    -0.97600
O2345       O  0.36059240  0.09239890  0.22077001    -0.54800
O2346       O  0.38195036  0.08029791  0.24539358    -0.74200
C2347       C  0.39549284  0.07938580  0.24184806     0.98200
O2348       O  0.45341714  0.13131429  0.24098658    -0.63000
O2349       O  0.41603874  0.17203566  0.20122881    -0.57800
O2350       O  0.42851170  0.12387598  0.20622794    -0.94500
O2351       O  0.41663601  0.13857868  0.19017813    -0.92900
O2352       O  0.44433170  0.19314681  0.24279560    -0.93200
O2353       O  0.46267763  0.18001350  0.26357278    -0.92000
C2354       C  0.42492640  0.13055792  0.18846078     1.17000
H2355       H  0.40660512  0.17338414  0.24708034     0.33000
H2356       H  0.44162970  0.14587706  0.28866193     0.43800
H2357       H  0.39572227  0.10993252  0.21628542     0.37300
H2358       H  0.37239613  0.11456438  0.30280297     0.33800
H2359       H  0.44152356  0.17990444  0.31990938     0.25600
H2360       H  0.40124141  0.10316457  0.34707444     0.31600
H2361       H  0.35286765  0.06833561  0.27462272     0.37500
H2362       H  0.44742154  0.18862150  0.22881342     0.31900
H2363       H  0.42672172  0.17298055  0.19501544     0.30800
H2364       H  0.38891440  0.14003067  0.17233179     0.32500
H2365       H  0.35422296  0.09861900  0.21900140     0.31500
H2366       H  0.46293235  0.16983600  0.25758721     0.35400
H2367       H  0.45274281  0.12142758  0.23240726     0.28200
H2368       H  0.35795148  0.15255622  0.30102588     0.32400
H2369       H  0.34699402  0.10466350  0.27375817     0.35300
H2370       H  0.40919917  0.17089101  0.18686061     0.27900
H2371       H  0.45747533  0.14057850  0.22900788     0.40700
H2372       H  0.42158367  0.13761259  0.35752655     0.30800
H2373       H  0.45471245  0.17478508  0.31081957     0.38400
H2374       H  0.35167586  0.08035761  0.22370329     0.30300
H2375       H  0.38350359  0.09815956  0.33562809     0.30300
H2376       H  0.34948088  0.13281261  0.29590830     0.30600
C2377       C  0.28091343  0.08984988  0.47862391    -0.03600
C2378       C  0.27642078  0.08231894  0.45596842    -0.06200
C2379       C  0.28827706  0.08852928  0.43731918    -0.21300
C2380       C  0.30501408  0.10212584  0.44096711     0.24400
C2381       C  0.30946839  0.10987048  0.46351697    -0.18900
C2382       C  0.29752074  0.10384725  0.48208148    -0.08800
C2383       C  0.31719035  0.10822789  0.42060766    -0.19100
C2384       C  0.33435785  0.11596120  0.42294383    -0.23900
C2385       C  0.34611520  0.12162707  0.40207984     0.26500
C2386       C  0.36173848  0.12182110  0.40356257    -0.20700
C2387       C  0.37266679  0.12644927  0.38383053    -0.10300
C2388       C  0.36834604  0.13131964  0.36229667    -0.10900
C2389       C  0.35303909  0.13181922  0.36122622    -0.03800
C2390       C  0.34206509  0.12701706  0.38081558    -0.18900
H2391       H  0.26376602  0.07153182  0.45269054     0.10200
H2392       H  0.28444909  0.08246315  0.42004800     0.10200
H2393       H  0.32209546  0.12066417  0.46683173     0.09900
H2394       H  0.30145932  0.10988413  0.49934959     0.11000
H2395       H  0.31164992  0.10534816  0.40289713     0.11100
H2396       H  0.33993135  0.11731002  0.44048450     0.13000
H2397       H  0.36528337  0.11794319  0.41983237     0.09500
H2398       H  0.38437005  0.12596818  0.38533949     0.11600
H2399       H  0.34926317  0.13550798  0.34500390     0.08200
H2400       H  0.33042424  0.12758885  0.37924328     0.11000
C2401       C  0.44644468  0.11591965  0.00065900    -0.03600
C2402       C  0.43367963  0.12005536  0.00536623    -0.06200
C2403       C  0.43107201  0.12390818  0.02857206    -0.21300
C2404       C  0.44117477  0.12376217  0.04752766     0.24400
C2405       C  0.45466728  0.12071710  0.04246914    -0.18900
C2406       C  0.45715215  0.11670482  0.01938585    -0.08800
C2407       C  0.43714020  0.12669759  0.07218197    -0.19100
C2408       C  0.44267124  0.12244967  0.09200277    -0.23900
C2409       C  0.43813008  0.12477855  0.11663956     0.26500
C2410       C  0.44005031  0.11552816  0.13537803    -0.20700
C2411       C  0.43605987  0.11747336  0.15884314    -0.10300
C2412       C  0.43012416  0.12880596  0.16404638    -0.10900
C2413       C  0.42837808  0.13816125  0.14527082    -0.03800
C2414       C  0.43239801  0.13626382  0.12195765    -0.18900
H2415       H  0.42528128  0.11966413  0.99131733     0.10200
H2416       H  0.42078487  0.12652066  0.03182972     0.10200
H2417       H  0.46332344  0.12127974  0.05617789     0.09900
H2418       H  0.46736783  0.11396475  0.01627129     0.11000
H2419       H  0.42840282  0.13157785  0.07384283     0.11100
H2420       H  0.45021453  0.11622312  0.09036350     0.13000
H2421       H  0.44452508  0.10664422  0.13181426     0.09500
H2422       H  0.43741353  0.10996729  0.17280357     0.11600
H2423       H  0.42392190  0.14709328  0.14854402     0.08200
H2424       H  0.43122492  0.14406954  0.10834558     0.11000
C2425       C  0.30751965  0.93289874  0.58719583    -0.03600
C2426       C  0.30448115  0.94220111  0.60461422    -0.06200
C2427       C  0.29127362  0.94586815  0.60180872    -0.21300
C2428       C  0.28096388  0.94052716  0.58129282     0.24400
C2429       C  0.28367534  0.93077714  0.56423766    -0.18900
C2430       C  0.29667063  0.92677072  0.56731778    -0.08800
C2431       C  0.26929950  0.94720254  0.57566761    -0.19100
C2432       C  0.26188748  0.95198750  0.59243988    -0.23900
C2433       C  0.25503173  0.96358526  0.58735536     0.26500
C2434       C  0.24283969  0.96381723  0.60265013    -0.20700
C2435       C  0.23860482  0.97675932  0.60079032    -0.10300
C2436       C  0.24689347  0.98992255  0.58401806    -0.10900
C2437       C  0.25845283  0.98920154  0.56802567    -0.03800
C2438       C  0.26242540  0.97617578  0.56957961    -0.18900
H2439       H  0.31264547  0.94705018  0.62014270     0.10200
H2440       H  0.28987610  0.95377314  0.61503771     0.10200
H2441       H  0.27607043  0.92671999  0.54813234     0.09900
H2442       H  0.29882283  0.91968163  0.55355721     0.11000
H2443       H  0.26776705  0.94934221  0.55704061     0.11100
H2444       H  0.26199390  0.94840976  0.61085636     0.13000
H2445       H  0.23707738  0.95434590  0.61662166     0.09500
H2446       H  0.22967490  0.97705435  0.61334023     0.11600
H2447       H  0.26495281  0.99914009  0.55480532     0.08200
H2448       H  0.27216115  0.97671526  0.55783340     0.11000
C2449       C  0.40370224  0.95534368  0.70033077    -0.03600
C2450       C  0.42152611  0.96353200  0.70362973    -0.06200
C2451       C  0.42952053  0.97602015  0.72116712    -0.21300
C2452       C  0.41992204  0.98082764  0.73540668     0.24400
C2453       C  0.40198968  0.97190791  0.73319804    -0.18900
C2454       C  0.39393840  0.95920012  0.71587292    -0.08800
C2455       C  0.42896578  0.99530728  0.75216398    -0.19100
C2456       C  0.42349009  0.00640666  0.75673712    -0.23900
C2457       C  0.43224051  0.02105011  0.77342926     0.26500
C2458       C  0.42898155  0.03466900  0.77170169    -0.20700
C2459       C  0.43566718  0.04787825  0.78849050    -0.10300
C2460       C  0.44567356  0.04766234  0.80751558    -0.10900
C2461       C  0.44946820  0.03434833  0.80866288    -0.03800
C2462       C  0.44276984  0.02116237  0.79193683    -0.18900
H2463       H  0.42937988  0.96075857  0.69200502     0.10200
H2464       H  0.44332249  0.98252091  0.72283990     0.10200
H2465       H  0.39421695  0.97496923  0.74452975     0.09900
H2466       H  0.38019736  0.95312742  0.71375180     0.11000
H2467       H  0.44104633  0.99753270  0.75941957     0.11100
H2468       H  0.41232254  0.00498597  0.74737119     0.13000
H2469       H  0.42086653  0.03486348  0.75765012     0.09500
H2470       H  0.43237059  0.05784023  0.78711887     0.11600
H2471       H  0.45698172  0.03362964  0.82315718     0.08200
H2472       H  0.44525269  0.01072403  0.79431908     0.11000
C2473       C  0.30856034  0.87872845  0.33649653    -0.03600
C2474       C  0.32594869  0.89049323  0.34046304    -0.06200
C2475       C  0.33275960  0.89333262  0.36351315    -0.21300
C2476       C  0.32235550  0.88455957  0.38310244     0.24400
C2477       C  0.30515691  0.87215475  0.37894632    -0.18900
C2478       C  0.29834108  0.86937101  0.35597652    -0.08800
C2479       C  0.32987910  0.88874019  0.40748342    -0.19100
C2480       C  0.32052585  0.88629674  0.42740463    -0.23900
C2481       C  0.32770202  0.89120611  0.45200554     0.26500
C2482       C  0.31644324  0.88854654  0.47095317    -0.20700
C2483       C  0.32247319  0.89293256  0.49436141    -0.10300
C2484       C  0.33998252  0.90017247  0.49940341    -0.10900
C2485       C  0.35124844  0.90289808  0.48043582    -0.03800
C2486       C  0.34523903  0.89844686  0.45714431    -0.18900
H2487       H  0.33416263  0.89790910  0.32589099     0.10200
H2488       H  0.34611299  0.90279593  0.36613696     0.10200
H2489       H  0.29687208  0.86456273  0.39332080     0.09900
H2490       H  0.28494546  0.85997425  0.35352984     0.11000
H2491       H  0.34367397  0.89491664  0.40853110     0.11100
H2492       H  0.30680982  0.88090263  0.42569461     0.13000
H2493       H  0.30287449  0.88305879  0.46763795     0.09500
H2494       H  0.31344838  0.89079128  0.50844290     0.11600
H2495       H  0.36484735  0.90845838  0.48354516     0.08200
H2496       H  0.35453019  0.90076250  0.44348334     0.11000
C2497       C  0.34007930  0.94456579  0.25405088    -0.03600
C2498       C  0.34263884  0.95489723  0.27395996    -0.06200
C2499       C  0.35473824  0.97238992  0.27331688    -0.21300
C2500       C  0.36408913  0.98000114  0.25249781     0.24400
C2501       C  0.36214980  0.96944165  0.23294406    -0.18900
C2502       C  0.35026820  0.95183242  0.23379033    -0.08800
C2503       C  0.37487431  0.99902817  0.25156248    -0.19100
C2504       C  0.37645888  0.00827565  0.23186013    -0.23900
C2505       C  0.38339517  0.02716372  0.23254077     0.26500
C2506       C  0.37607296  0.03427937  0.21767174    -0.20700
C2507       C  0.38052313  0.05147221  0.22004910    -0.10300
C2508       C  0.39288305  0.06211718  0.23674227    -0.10900
C2509       C  0.40113226  0.05536804  0.25043808    -0.03800
C2510       C  0.39634273  0.03801620  0.24851881    -0.18900
H2511       H  0.33468938  0.94958575  0.28959091     0.10200
H2512       H  0.35604208  0.98019730  0.28865906     0.10200
H2513       H  0.36942582  0.97483420  0.21681512     0.09900
H2514       H  0.34828342  0.94408030  0.21812207     0.11000
H2515       H  0.37950018  0.00566140  0.26839761     0.11100
H2516       H  0.37028868  0.00159784  0.21553392     0.13000
H2517       H  0.36620710  0.02628694  0.20504563     0.09500
H2518       H  0.37398852  0.05637235  0.20925240     0.11600
H2519       H  0.41062825  0.06328629  0.26352080     0.08200
H2520       H  0.40253801  0.03305089  0.25985803     0.11000
C2521       C  0.19412361  0.98569832  0.83300051    -0.03600
C2522       C  0.20455726  0.00342300  0.82943606    -0.06200
C2523       C  0.20656845  0.01050480  0.80660356    -0.21300
C2524       C  0.19821553  0.00008010  0.78680410     0.24400
C2525       C  0.18704661  0.98249052  0.79068368    -0.18900
C2526       C  0.18516602  0.97541828  0.81337349    -0.08800
C2527       C  0.20160971  0.00797200  0.76253967    -0.19100
C2528       C  0.19804920  0.99891386  0.74206099    -0.23900
C2529       C  0.20228558  0.00654967  0.71766602     0.26500
C2530       C  0.20155245  0.99619417  0.69846501    -0.20700
C2531       C  0.20572460  0.00279419  0.67529707    -0.10300
C2532       C  0.21077315  0.01997307  0.67077845    -0.10900
C2533       C  0.21112033  0.03022781  0.68989175    -0.03800
C2534       C  0.20686024  0.02362256  0.71296334    -0.18900
H2535       H  0.21150402  0.01176426  0.84415721     0.10200
H2536       H  0.21501269  0.02414619  0.80432406     0.10200
H2537       H  0.17967156  0.97401394  0.77636786     0.09900
H2538       H  0.17667257  0.96177436  0.81548763     0.11000
H2539       H  0.20823928  0.02182572  0.76180438     0.11100
H2540       H  0.19253217  0.98515994  0.74296013     0.13000
H2541       H  0.19798080  0.98296354  0.70145571     0.09500
H2542       H  0.20543425  0.99458109  0.66107259     0.11600
H2543       H  0.21479179  0.04350093  0.68705649     0.08200
H2544       H  0.20714165  0.03199692  0.72687629     0.11000
C2545       C  0.26018878  0.01441330  0.91337142    -0.03600
C2546       C  0.26470850  0.02783358  0.92954092    -0.06200
C2547       C  0.28187584  0.04039516  0.93259794    -0.21300
C2548       C  0.29468166  0.04011060  0.91889016     0.24400
C2549       C  0.29001567  0.02738990  0.90144012    -0.18900
C2550       C  0.27291346  0.01447298  0.89897035    -0.08800
C2551       C  0.31283215  0.05117306  0.92567774    -0.19100
C2552       C  0.32545278  0.05892595  0.90965402    -0.23900
C2553       C  0.34365470  0.06612945  0.91634576     0.26500
C2554       C  0.35638558  0.08136391  0.90592763    -0.20700
C2555       C  0.37374438  0.08659475  0.90904710    -0.10300
C2556       C  0.37850774  0.07630370  0.92195644    -0.10900
C2557       C  0.36575877  0.06153252  0.93331916    -0.03800
C2558       C  0.34852839  0.05657878  0.93073148    -0.18900
H2559       H  0.25513999  0.02785317  0.94111049     0.10200
H2560       H  0.28525105  0.04995143  0.94635122     0.10200
H2561       H  0.29971441  0.02669846  0.89099138     0.09900
H2562       H  0.26971238  0.00411166  0.88658640     0.11000
H2563       H  0.31598291  0.05221952  0.94448719     0.11100
H2564       H  0.32235274  0.05908149  0.89101373     0.13000
H2565       H  0.35286786  0.08885392  0.89467795     0.09500
H2566       H  0.38332435  0.09793295  0.89989899     0.11600
H2567       H  0.36908913  0.05332083  0.94323465     0.08200
H2568       H  0.33896891  0.04462129  0.93861791     0.11000
C2569       C  0.19223567  0.91643000  0.02762701    -0.03600
C2570       C  0.19709663  0.92477735  0.04977697    -0.06200
C2571       C  0.20202241  0.91788025  0.06854337    -0.21300
C2572       C  0.20268449  0.90277836  0.06542389     0.24400
C2573       C  0.19750667  0.89424138  0.04350633    -0.18900
C2574       C  0.19225426  0.90091435  0.02494363    -0.08800
C2575       C  0.20859884  0.89609561  0.08534239    -0.19100
C2576       C  0.21792571  0.88836173  0.08195457    -0.23900
C2577       C  0.22490021  0.88293380  0.10203520     0.26500
C2578       C  0.24144861  0.88524621  0.10044664    -0.20700
C2579       C  0.24865822  0.88114113  0.11967284    -0.10300
C2580       C  0.23929272  0.87424647  0.14075519    -0.10900
C2581       C  0.22235844  0.87110789  0.14174112    -0.03800
C2582       C  0.21529655  0.87548820  0.12269893    -0.18900
H2583       H  0.19725511  0.93671871  0.05254260     0.10200
H2584       H  0.20578723  0.92461699  0.08536231     0.10200
H2585       H  0.19745153  0.88235656  0.04069845     0.09900
H2586       H  0.18864356  0.89408879  0.00820781     0.11000
H2587       H  0.20634106  0.89879559  0.10337587     0.11100
H2588       H  0.22178650  0.88728715  0.06405158     0.13000
H2589       H  0.24903825  0.89080047  0.08458264     0.09500
H2590       H  0.26169346  0.88372920  0.11819627     0.11600
H2591       H  0.21464666  0.86568742  0.15753084     0.08200
H2592       H  0.20233172  0.87310413  0.12417871     0.11000
C2593       C  0.51766832  0.88579914  0.68685217    -0.03600
C2594       C  0.51358422  0.88346544  0.66251785    -0.06200
C2595       C  0.50092346  0.88642914  0.65327360    -0.21300
C2596       C  0.49203769  0.89188534  0.66798964     0.24400
C2597       C  0.49612073  0.89428488  0.69238946    -0.18900
C2598       C  0.50881846  0.89133462  0.70165204    -0.08800
C2599       C  0.47834683  0.89434512  0.65712021    -0.19100
C2600       C  0.47146312  0.90295987  0.66746067    -0.23900
C2601       C  0.45813666  0.90561175  0.65586679     0.26500
C2602       C  0.45661726  0.91971793  0.66274952    -0.20700
C2603       C  0.44402119  0.92248926  0.65280695    -0.10300
C2604       C  0.43236676  0.91098363  0.63606716    -0.10900
C2605       C  0.43389559  0.89687214  0.62905658    -0.03800
C2606       C  0.44664035  0.89420426  0.63882193    -0.18900
H2607       H  0.52007638  0.87920546  0.65056123     0.10200
H2608       H  0.49802961  0.88439834  0.63445676     0.10200
H2609       H  0.48938085  0.89807581  0.70456684     0.09900
H2610       H  0.51153088  0.89318993  0.72052269     0.11000
H2611       H  0.47434865  0.88943990  0.63923940     0.11100
H2612       H  0.47631413  0.90916035  0.68447501     0.13000
H2613       H  0.46521165  0.92863873  0.67592729     0.09500
H2614       H  0.44313294  0.93342358  0.65873324     0.11600
H2615       H  0.42511884  0.88777956  0.61619423     0.08200
H2616       H  0.44709579  0.88294521  0.63345497     0.11000
C2617       C  0.69654496  0.92306935  0.52434407    -0.03600
C2618       C  0.70073660  0.93061014  0.54702746    -0.06200
C2619       C  0.68866532  0.92415972  0.56546606    -0.21300
C2620       C  0.67208463  0.91033982  0.56144577     0.24400
C2621       C  0.66795277  0.90281183  0.53877418    -0.18900
C2622       C  0.68002173  0.90908342  0.52050927    -0.08800
C2623       C  0.65960588  0.90347205  0.58138467    -0.19100
C2624       C  0.64249461  0.89531536  0.57807484    -0.23900
C2625       C  0.62989344  0.88771421  0.59777792     0.26500
C2626       C  0.61350689  0.88568252  0.59504669    -0.20700
C2627       C  0.60147685  0.87884493  0.61348407    -0.10300
C2628       C  0.60550366  0.87356159  0.63486453    -0.10900
C2629       C  0.62166131  0.87492649  0.63710123    -0.03800
C2630       C  0.63370838  0.88193424  0.61884785    -0.18900
H2631       H  0.71335889  0.94137449  0.55056357     0.10200
H2632       H  0.69223339  0.93006090  0.58286504     0.10200
H2633       H  0.65551071  0.89183122  0.53515085     0.09900
H2634       H  0.67631135  0.90300517  0.50323851     0.11000
H2635       H  0.66474342  0.90568288  0.59931602     0.11100
H2636       H  0.63744353  0.89469547  0.56034916     0.13000
H2637       H  0.61013844  0.88974879  0.57879404     0.09500
H2638       H  0.58913100  0.87789545  0.61111506     0.11600
H2639       H  0.62523708  0.87098974  0.65327655     0.08200
H2640       H  0.64594827  0.88269026  0.62128957     0.11000
C2641       C  0.63412111  0.11906960  0.81506685    -0.03600
C2642       C  0.63444982  0.12773786  0.83599201    -0.06200
C2643       C  0.61930359  0.12583027  0.84569160    -0.21300
C2644       C  0.60337823  0.11494766  0.83506032     0.24400
C2645       C  0.60300721  0.10621142  0.81412350    -0.18900
C2646       C  0.61819755  0.10831483  0.80421462    -0.08800
C2647       C  0.58763057  0.11379296  0.84556009    -0.19100
C2648       C  0.57172363  0.10027871  0.84245529    -0.23900
C2649       C  0.55577969  0.09926576  0.85196842     0.26500
C2650       C  0.54085341  0.08316516  0.85362808    -0.20700
C2651       C  0.52534884  0.08163524  0.86108146    -0.10300
C2652       C  0.52429372  0.09622675  0.86695328    -0.10900
C2653       C  0.53926785  0.11235981  0.86542700    -0.03800
C2654       C  0.55479361  0.11388019  0.85801727    -0.18900
H2655       H  0.64648445  0.13629828  0.84464075     0.10200
H2656       H  0.62003923  0.13290378  0.86161848     0.10200
H2657       H  0.59108924  0.09809573  0.80496065     0.09900
H2658       H  0.61747115  0.10151832  0.78800369     0.11000
H2659       H  0.58940147  0.12428167  0.85687393     0.11100
H2660       H  0.57022689  0.08916242  0.83293366     0.13000
H2661       H  0.54115788  0.07168088  0.84899815     0.09500
H2662       H  0.51415148  0.06898284  0.86206579     0.11600
H2663       H  0.53898581  0.12389710  0.86973778     0.08200
H2664       H  0.56582081  0.12657135  0.85646127     0.11000
C2665       C  0.58294204  0.94156378  0.74592565    -0.03600
C2666       C  0.57501955  0.94616439  0.76358486    -0.06200
C2667       C  0.57969924  0.96339567  0.76679224    -0.21300
C2668       C  0.59201273  0.97625388  0.75202765     0.24400
C2669       C  0.59948569  0.97150719  0.73387288    -0.18900
C2670       C  0.59504370  0.95441771  0.73093733    -0.08800
C2671       C  0.59834168  0.99460435  0.75755279    -0.19100
C2672       C  0.60536913  0.00716824  0.74109458    -0.23900
C2673       C  0.61542925  0.02573134  0.74710310     0.26500
C2674       C  0.61809379  0.03797914  0.72960338    -0.20700
C2675       C  0.62996278  0.05537908  0.73324129    -0.10300
C2676       C  0.63969673  0.06072844  0.75420671    -0.10900
C2677       C  0.63644356  0.04865122  0.77214964    -0.03800
C2678       C  0.62436538  0.03137529  0.76875232    -0.18900
H2679       H  0.56576640  0.93657165  0.77550788     0.10200
H2680       H  0.57393101  0.96674491  0.78112928     0.10200
H2681       H  0.60937584  0.98104216  0.72259029     0.09900
H2682       H  0.60138039  0.95129773  0.71713069     0.11000
H2683       H  0.59771107  0.99785499  0.77595571     0.11100
H2684       H  0.60448539  0.00375875  0.72242313     0.13000
H2685       H  0.61148303  0.03398172  0.71270323     0.09500
H2686       H  0.63233163  0.06445206  0.71909382     0.11600
H2687       H  0.64378509  0.05250505  0.78849695     0.08200
H2688       H  0.62297531  0.02238553  0.78250469     0.11000
C2689       C  0.77662368  0.02345959  0.16907941    -0.03600
C2690       C  0.77621932  0.03403880  0.18711147    -0.06200
C2691       C  0.77328216  0.02868074  0.21068572    -0.21300
C2692       C  0.77069402  0.01259214  0.21718002     0.24400
C2693       C  0.77062779  0.00166468  0.19912175    -0.18900
C2694       C  0.77351289  0.00706128  0.17522596    -0.08800
C2695       C  0.76776771  0.00797438  0.24291375    -0.19100
C2696       C  0.76838851  0.99475129  0.25288851    -0.23900
C2697       C  0.76502671  0.99024800  0.27861418     0.26500
C2698       C  0.76001724  0.97345675  0.28535707    -0.20700
C2699       C  0.75632506  0.96831990  0.30903563    -0.10300
C2700       C  0.75769204  0.97989451  0.32686113    -0.10900
C2701       C  0.76318422  0.99690193  0.32032534    -0.03800
C2702       C  0.76682514  0.00205204  0.29644131    -0.18900
H2703       H  0.77824155  0.04664631  0.18303902     0.10200
H2704       H  0.77320943  0.03730601  0.22400186     0.10200
H2705       H  0.76825591  0.98896283  0.20318243     0.09900
H2706       H  0.77363710  0.99859256  0.16171015     0.11000
H2707       H  0.76501915  0.01605887  0.25413660     0.11100
H2708       H  0.77087027  0.98642184  0.24181287     0.13000
H2709       H  0.75868920  0.96413993  0.27215014     0.09500
H2710       H  0.75230782  0.95513988  0.31331061     0.11600
H2711       H  0.76449278  0.00616647  0.33359140     0.08200
H2712       H  0.77119707  0.01528736  0.29217641     0.11000
C2713       C  0.78568346  0.09277333  0.97725066    -0.03600
C2714       C  0.79490297  0.11068619  0.97451827    -0.06200
C2715       C  0.79046903  0.11861265  0.95675025    -0.21300
C2716       C  0.77649898  0.10884658  0.94175895     0.24400
C2717       C  0.76756122  0.09092090  0.94403195    -0.18900
C2718       C  0.77213565  0.08296761  0.96155072    -0.08800
C2719       C  0.77148722  0.11752203  0.92374086    -0.19100
C2720       C  0.75495596  0.11171092  0.91823706    -0.23900
C2721       C  0.74901904  0.11922540  0.89960836     0.26500
C2722       C  0.73178141  0.11498148  0.89962590    -0.20700
C2723       C  0.72517733  0.12044107  0.88126541    -0.10300
C2724       C  0.73569154  0.13022368  0.86235125    -0.10900
C2725       C  0.75306300  0.13476627  0.86261598    -0.03800
C2726       C  0.75965454  0.12932974  0.88097063    -0.18900
H2727       H  0.80547275  0.11860741  0.98624691     0.10200
H2728       H  0.79766114  0.13242586  0.95513015     0.10200
H2729       H  0.75703540  0.08302226  0.93223945     0.09900
H2730       H  0.76478301  0.06916452  0.96316069     0.11000
H2731       H  0.78152009  0.12926030  0.91587673     0.11100
H2732       H  0.74513839  0.10091482  0.92814837     0.13000
H2733       H  0.72328736  0.10711474  0.91370024     0.09500
H2734       H  0.71173443  0.11658654  0.88157179     0.11600
H2735       H  0.76155557  0.14220443  0.84829259     0.08200
H2736       H  0.77288986  0.13255282  0.87991929     0.11000
C2737       C  0.63866202  0.10732853  0.50369928    -0.03600
C2738       C  0.65542375  0.11078642  0.50792236    -0.06200
C2739       C  0.66168484  0.11283973  0.53120291    -0.21300
C2740       C  0.65137010  0.11149422  0.55074664     0.24400
C2741       C  0.63473843  0.10844349  0.54642480    -0.18900
C2742       C  0.62846331  0.10629428  0.52323283    -0.08800
C2743       C  0.65870599  0.11406504  0.57513849    -0.19100
C2744       C  0.64929480  0.10926274  0.59533175    -0.23900
C2745       C  0.65664873  0.11243502  0.61986336     0.26500
C2746       C  0.64547982  0.10599292  0.63948120    -0.20700
C2747       C  0.65181091  0.10898931  0.66284954    -0.10300
C2748       C  0.66950201  0.11846753  0.66707834    -0.10900
C2749       C  0.68062548  0.12485539  0.64743979    -0.03800
C2750       C  0.67434867  0.12198429  0.62426727    -0.18900
H2751       H  0.66358200  0.11157912  0.49330223     0.10200
H2752       H  0.67461297  0.11535121  0.53396704     0.10200
H2753       H  0.62652989  0.10793065  0.56073945     0.09900
H2754       H  0.61554301  0.10383623  0.52062170     0.11000
H2755       H  0.67246833  0.11990080  0.57603024     0.11100
H2756       H  0.63545881  0.10248832  0.59407162     0.13000
H2757       H  0.63177290  0.09865276  0.63672964     0.09500
H2758       H  0.64288789  0.10386835  0.67753243     0.11600
H2759       H  0.69435624  0.13233009  0.64988297     0.08200
H2760       H  0.68361572  0.12753661  0.61014948     0.11000
C2761       C  0.54598551  0.10048904  0.36313480    -0.03600
C2762       C  0.54934350  0.11697461  0.35690076    -0.06200
C2763       C  0.53633626  0.11957238  0.34811222    -0.21300
C2764       C  0.51953860  0.10586930  0.34576323     0.24400
C2765       C  0.51608524  0.08930320  0.35175022    -0.18900
C2766       C  0.52920414  0.08663659  0.36021604    -0.08800
C2767       C  0.50629461  0.10936813  0.33589366    -0.19100
C2768       C  0.48950072  0.10031171  0.34141840    -0.23900
C2769       C  0.47667466  0.10441619  0.33131322     0.26500
C2770       C  0.46160303  0.10006405  0.34398492    -0.20700
C2771       C  0.44939728  0.10382123  0.33472477    -0.10300
C2772       C  0.45187486  0.11164910  0.31233030    -0.10900
C2773       C  0.46681911  0.11574142  0.29956693    -0.03800
C2774       C  0.47904307  0.11220625  0.30889445    -0.18900
H2775       H  0.56209923  0.12792482  0.35864591     0.10200
H2776       H  0.53939130  0.13242290  0.34332681     0.10200
H2777       H  0.50336975  0.07838486  0.34950601     0.09900
H2778       H  0.52617025  0.07374259  0.36464591     0.11000
H2779       H  0.51087111  0.12061674  0.32468787     0.11100
H2780       H  0.48513374  0.09012045  0.35450398     0.13000
H2781       H  0.45934832  0.09388595  0.36117885     0.09500
H2782       H  0.43794683  0.10040343  0.34488930     0.11600
H2783       H  0.46915455  0.12182448  0.28229182     0.08200
H2784       H  0.49017115  0.11530864  0.29819953     0.11000
C2785       C  0.44211948  0.97153492  0.55380990    -0.03600
C2786       C  0.45744036  0.98214688  0.56597162    -0.06200
C2787       C  0.47227784  0.99328305  0.55326531    -0.21300
C2788       C  0.47208793  0.99401068  0.52824374     0.24400
C2789       C  0.45667339  0.98346178  0.51624322    -0.18900
C2790       C  0.44200446  0.97236514  0.52881580    -0.08800
C2791       C  0.48795230  0.00639840  0.51544774    -0.19100
C2792       C  0.49013541  0.00627464  0.49164467    -0.23900
C2793       C  0.50569005  0.01898910  0.47848955     0.26500
C2794       C  0.50626515  0.01742635  0.45362678    -0.20700
C2795       C  0.52076466  0.02888288  0.44057336    -0.10300
C2796       C  0.53501287  0.04215501  0.45218963    -0.10900
C2797       C  0.53424972  0.04387346  0.47694549    -0.03800
C2798       C  0.51986389  0.03252637  0.48989762    -0.18900
H2799       H  0.45796141  0.98187821  0.58519705     0.10200
H2800       H  0.48394219  0.00139378  0.56302397     0.10200
H2801       H  0.45555059  0.98383433  0.49717615     0.09900
H2802       H  0.43044447  0.96451293  0.51871539     0.11000
H2803       H  0.49808757  0.01585604  0.52647652     0.11100
H2804       H  0.48019511  0.99628869  0.48091750     0.13000
H2805       H  0.49550809  0.00720209  0.44426859     0.09500
H2806       H  0.52091741  0.02717400  0.42153538     0.11600
H2807       H  0.54492636  0.05396940  0.48657675     0.08200
H2808       H  0.52023289  0.03457520  0.50881808     0.11000
C2809       C  0.66649494  0.07474659  0.42879603    -0.03600
C2810       C  0.66340565  0.06163621  0.44487869    -0.06200
C2811       C  0.67237797  0.05286884  0.44309740    -0.21300
C2812       C  0.68476502  0.05712204  0.42537969     0.24400
C2813       C  0.68914545  0.07141964  0.41076230    -0.18900
C2814       C  0.68003853  0.08022172  0.41251703    -0.08800
C2815       C  0.69085510  0.04488385  0.42084060    -0.19100
C2816       C  0.70589064  0.04890301  0.41069983    -0.23900
C2817       C  0.71077802  0.03562464  0.40692982     0.26500
C2818       C  0.72773416  0.03960040  0.41070437    -0.20700
C2819       C  0.73211221  0.02675691  0.40965636    -0.10300
C2820       C  0.71958649  0.00972450  0.40467145    -0.10900
C2821       C  0.70285844  0.00602276  0.39937912    -0.03800
C2822       C  0.69851788  0.01882714  0.40039648    -0.18900
H2823       H  0.65295660  0.05715474  0.45747142     0.10200
H2824       H  0.66884210  0.04198796  0.45464857     0.10200
H2825       H  0.69852326  0.07490864  0.39675400     0.09900
H2826       H  0.68241235  0.09010147  0.39963975     0.11000
H2827       H  0.68254468  0.03180415  0.42681277     0.11100
H2828       H  0.71516015  0.06216105  0.40674631     0.13000
H2829       H  0.73742151  0.05248416  0.41555858     0.09500
H2830       H  0.74508681  0.03000029  0.41393446     0.11600
H2831       H  0.69296564  0.99308650  0.39513729     0.08200
H2832       H  0.68546011  0.01549002  0.39653323     0.11000
C2833       C  0.55554768  0.88464896  0.83208500    -0.03600
C2834       C  0.56851974  0.88924648  0.84910596    -0.06200
C2835       C  0.56591187  0.89194806  0.87274588    -0.21300
C2836       C  0.55022472  0.88999733  0.88020740     0.24400
C2837       C  0.53734919  0.88597617  0.86296116    -0.18900
C2838       C  0.54005398  0.88341430  0.83908442    -0.08800
C2839       C  0.54819750  0.89225008  0.90609906    -0.19100
C2840       C  0.53355963  0.88930829  0.91654010    -0.23900
C2841       C  0.53225913  0.89223096  0.94234699     0.26500
C2842       C  0.51978489  0.89614849  0.94949935    -0.20700
C2843       C  0.51834308  0.89960446  0.97327868    -0.10300
C2844       C  0.52923269  0.89905577  0.99078756    -0.10900
C2845       C  0.54133608  0.89445341  0.98385219    -0.03800
C2846       C  0.54286086  0.89108941  0.95984737    -0.18900
H2847       H  0.58070953  0.89055169  0.84418529     0.10200
H2848       H  0.57615926  0.89525676  0.88539491     0.10200
H2849       H  0.52514316  0.88462582  0.86761913     0.09900
H2850       H  0.52985097  0.87991200  0.82629420     0.11000
H2851       H  0.55952531  0.89669355  0.91710022     0.11100
H2852       H  0.52221353  0.88544679  0.90586935     0.13000
H2853       H  0.51132369  0.89692065  0.93651782     0.09500
H2854       H  0.50872006  0.90291131  0.97786323     0.11600
H2855       H  0.54982233  0.89377001  0.99685817     0.08200
H2856       H  0.55226016  0.88752505  0.95513430     0.11000
C2857       C  0.34359751  0.89144738  0.18627001    -0.03600
C2858       C  0.34479822  0.88956484  0.16164115    -0.06200
C2859       C  0.36011210  0.89212600  0.15150711    -0.21300
C2860       C  0.37466666  0.89674731  0.16562537     0.24400
C2861       C  0.37346129  0.89868863  0.19026581    -0.18900
C2862       C  0.35818917  0.89610821  0.20037626    -0.08800
C2863       C  0.39046050  0.89851461  0.15421265    -0.19100
C2864       C  0.40613733  0.90650895  0.16442054    -0.23900
C2865       C  0.42185627  0.90781396  0.15354214     0.26500
C2866       C  0.43792007  0.92048097  0.16197385    -0.20700
C2867       C  0.45303461  0.92204141  0.15279937    -0.10300
C2868       C  0.45252804  0.91074525  0.13519940    -0.10900
C2869       C  0.43647101  0.89785250  0.12697847    -0.03800
C2870       C  0.42130292  0.89642481  0.13596383    -0.18900
H2871       H  0.33383690  0.88586505  0.15021245     0.10200
H2872       H  0.36055138  0.89037812  0.13252182     0.10200
H2873       H  0.38406960  0.90173995  0.20204807     0.09900
H2874       H  0.35780117  0.89759317  0.21943115     0.11000
H2875       H  0.38906883  0.89330955  0.13644637     0.11100
H2876       H  0.40785233  0.91298733  0.18128020     0.13000
H2877       H  0.43880150  0.92929815  0.17569685     0.09500
H2878       H  0.46516176  0.93202578  0.15970976     0.11600
H2879       H  0.43563358  0.88894685  0.11343751     0.08200
H2880       H  0.40923168  0.88618779  0.12940211     0.11000
C2881       C  0.57567683  0.04582988  0.31032024    -0.03600
C2882       C  0.56058314  0.03004495  0.31349471    -0.06200
C2883       C  0.55496863  0.01744258  0.29601419    -0.21300
C2884       C  0.56411175  0.02032484  0.27478004     0.24400
C2885       C  0.57898950  0.03631419  0.27117276    -0.18900
C2886       C  0.58471922  0.04893209  0.28883142    -0.08800
C2887       C  0.55797149  0.00598288  0.25756451    -0.19100
C2888       C  0.56191002  0.00800316  0.23432931    -0.23900
C2889       C  0.55448567  0.99347545  0.21737012     0.26500
C2890       C  0.55197893  0.99670307  0.19381472    -0.20700
C2891       C  0.54480614  0.98344782  0.17730424    -0.10300
C2892       C  0.54028809  0.96664959  0.18381192    -0.10900
C2893       C  0.54304037  0.96337098  0.20731473    -0.03800
C2894       C  0.55001316  0.97667338  0.22403098    -0.18900
H2895       H  0.55336118  0.02714959  0.32987038     0.10200
H2896       H  0.54350036  0.00525963  0.29925175     0.10200
H2897       H  0.58657087  0.03895878  0.25520887     0.09900
H2898       H  0.59640326  0.06097225  0.28586386     0.11000
H2899       H  0.54895101  0.99328253  0.26414890     0.11100
H2900       H  0.56962329  0.02077534  0.22703883     0.13000
H2901       H  0.55541682  0.00951661  0.18820641     0.09500
H2902       H  0.54308382  0.98645453  0.15922067     0.11600
H2903       H  0.53975545  0.95057314  0.21274932     0.08200
H2904       H  0.55216946  0.97383040  0.24196806     0.11000
C2905       C  0.59836587  0.93637687  0.06712987    -0.03600
C2906       C  0.60908735  0.95004717  0.05224935    -0.06200
C2907       C  0.62677837  0.95706146  0.05301785    -0.21300
C2908       C  0.63434556  0.95085027  0.06900102     0.24400
C2909       C  0.62357849  0.93631781  0.08281311    -0.18900
C2910       C  0.60567081  0.92907803  0.08175960    -0.08800
C2911       C  0.65331418  0.96120210  0.07177826    -0.19100
C2912       C  0.66294640  0.95893755  0.08815618    -0.23900
C2913       C  0.68124834  0.97231211  0.09136301     0.26500
C2914       C  0.69408005  0.96797446  0.09408648    -0.20700
C2915       C  0.71145592  0.98081310  0.09427961    -0.10300
C2916       C  0.71618910  0.99818643  0.09216571    -0.10900
C2917       C  0.70315396  0.00239839  0.09141926    -0.03800
C2918       C  0.68598761  0.98967777  0.09099347    -0.18900
H2919       H  0.60380103  0.95596984  0.04093140     0.10200
H2920       H  0.63464429  0.96812684  0.04201345     0.10200
H2921       H  0.62885236  0.93100407  0.09517506     0.09900
H2922       H  0.59766349  0.91865237  0.09364260     0.11000
H2923       H  0.65979224  0.97235769  0.06028857     0.11100
H2924       H  0.65760139  0.94760619  0.09927108     0.13000
H2925       H  0.69070446  0.95466412  0.09491579     0.09500
H2926       H  0.72113755  0.97711466  0.09520587     0.11600
H2927       H  0.70616262  0.01559237  0.09029785     0.08200
H2928       H  0.67636333  0.99345103  0.08984248     0.11000
C2929       C  0.47071714  0.03761776  0.95374797    -0.03600
C2930       C  0.47840444  0.02931171  0.94248103    -0.06200
C2931       C  0.48092696  0.01730985  0.95486909    -0.21300
C2932       C  0.47577168  0.01329308  0.97870603     0.24400
C2933       C  0.46766455  0.02129556  0.98975964    -0.18900
C2934       C  0.46530070  0.03339632  0.97746854    -0.08800
C2935       C  0.47885302  0.00053195  0.99113099    -0.19100
C2936       C  0.47864257  0.99873257  0.01498913    -0.23900
C2937       C  0.48278462  0.98656121  0.02695718     0.26500
C2938       C  0.48887577  0.98980062  0.05047214    -0.20700
C2939       C  0.49405735  0.97928186  0.06165682    -0.10300
C2940       C  0.49319577  0.96527974  0.04948784    -0.10900
C2941       C  0.48622988  0.96153813  0.02644201    -0.03800
C2942       C  0.48096587  0.97195089  0.01537338    -0.18900
H2943       H  0.48268823  0.03226056  0.92421465     0.10200
H2944       H  0.48707651  0.01124268  0.94583700     0.10200
H2945       H  0.46290817  0.01817836  0.00775699     0.09900
H2946       H  0.45903083  0.03932961  0.98652212     0.11000
H2947       H  0.48242177  0.99301201  0.98002434     0.11100
H2948       H  0.47661780  0.00724483  0.02634626     0.13000
H2949       H  0.49009471  0.00078678  0.05997347     0.09500
H2950       H  0.49916471  0.98239287  0.07954244     0.11600
H2951       H  0.48494040  0.95057693  0.01680076     0.08200
H2952       H  0.47552632  0.96847525  0.99773353     0.11000
C2953       C  0.42840704  0.13395944  0.85124405    -0.03600
C2954       C  0.42732024  0.13482011  0.82635132    -0.06200
C2955       C  0.42424775  0.14712303  0.81578401    -0.21300
C2956       C  0.42244772  0.15900569  0.82978581     0.24400
C2957       C  0.42299260  0.15779859  0.85467024    -0.18900
C2958       C  0.42590721  0.14545016  0.86523336    -0.08800
C2959       C  0.41979036  0.17238051  0.81815262    -0.19100
C2960       C  0.42588574  0.18814412  0.82753535    -0.23900
C2961       C  0.42383206  0.20201816  0.81640731     0.26500
C2962       C  0.43654756  0.21910210  0.82032264    -0.20700
C2963       C  0.43470904  0.23262588  0.81160923    -0.10300
C2964       C  0.41982107  0.22944892  0.79937259    -0.10900
C2965       C  0.40704865  0.21232083  0.79533763    -0.03800
C2966       C  0.40910636  0.19873005  0.80354291    -0.18900
H2967       H  0.42905739  0.12613671  0.81499290     0.10200
H2968       H  0.42367042  0.14761673  0.79658129     0.10200
H2969       H  0.42106601  0.16633556  0.86606280     0.09900
H2970       H  0.42639536  0.14507398  0.88445148     0.11000
H2971       H  0.41360174  0.16953175  0.80086004     0.11100
H2972       H  0.43357721  0.19143725  0.84360849     0.13000
H2973       H  0.44796262  0.22201052  0.83028877     0.09500
H2974       H  0.44475902  0.24563377  0.81508525     0.11600
H2975       H  0.39547173  0.20944861  0.78584661     0.08200
H2976       H  0.39893841  0.18571110  0.80052640     0.11000
C2977       C  0.36633484  0.22040317  0.71216079    -0.03600
C2978       C  0.37059175  0.21842313  0.68877637    -0.06200
C2979       C  0.35976444  0.20393766  0.67548699    -0.21300
C2980       C  0.34427942  0.19111930  0.68500467     0.24400
C2981       C  0.34024611  0.19263979  0.70875876    -0.18900
C2982       C  0.35121247  0.20715026  0.72222245    -0.08800
C2983       C  0.33286709  0.17652019  0.66938718    -0.19100
C2984       C  0.31579222  0.16720817  0.67208751    -0.23900
C2985       C  0.30456467  0.15300840  0.65580493     0.26500
C2986       C  0.28943872  0.13940154  0.66493333    -0.20700
C2987       C  0.27884503  0.12543087  0.65064291    -0.10300
C2988       C  0.28299007  0.12478407  0.62667411    -0.10900
C2989       C  0.29772267  0.13881249  0.61711760    -0.03800
C2990       C  0.30844629  0.15280335  0.63156644    -0.18900
H2991       H  0.38222026  0.22823527  0.68049140     0.10200
H2992       H  0.36329652  0.20298025  0.65738823     0.10200
H2993       H  0.32869502  0.18271047  0.71700515     0.09900
H2994       H  0.34764231  0.20817823  0.74026051     0.11000
H2995       H  0.33878051  0.17384889  0.65446560     0.11100
H2996       H  0.30976006  0.16967391  0.68704639     0.13000
H2997       H  0.28602229  0.13936080  0.68340372     0.09500
H2998       H  0.26747883  0.11497201  0.65857569     0.11600
H2999       H  0.30118694  0.13879175  0.59869505     0.08200
H3000       H  0.31970403  0.16341067  0.62370711     0.11000
C3001       C  0.20536718  0.01921094  0.98328754    -0.03600
C3002       C  0.20256696  0.01996452  0.00777801    -0.06200
C3003       C  0.20424079  0.03493655  0.01795307    -0.21300
C3004       C  0.20901774  0.04958626  0.00401315     0.24400
C3005       C  0.21176719  0.04880018  0.97954535    -0.18900
C3006       C  0.20998654  0.03386375  0.96936842    -0.08800
C3007       C  0.21046815  0.06530669  0.01509750    -0.19100
C3008       C  0.22127043  0.08119618  0.00676506    -0.23900
C3009       C  0.22310058  0.09739128  0.01663336     0.26500
C3010       C  0.23795517  0.11288479  0.01108415    -0.20700
C3011       C  0.24011161  0.12854897  0.01892283    -0.10300
C3012       C  0.22733935  0.12922568  0.03235597    -0.10900
C3013       C  0.21235402  0.11371417  0.03779049    -0.03800
C3014       C  0.21026401  0.09797135  0.03009898    -0.18900
H3015       H  0.19883256  0.00891179  0.01903705     0.10200
H3016       H  0.20187008  0.03510275  0.03679928     0.10200
H3017       H  0.21490646  0.05958176  0.96802412     0.09900
H3018       H  0.21208528  0.03378606  0.95042799     0.11000
H3019       H  0.20297101  0.06371856  0.03094619     0.11100
H3020       H  0.22980210  0.08257971  0.99227215     0.13000
H3021       H  0.24798964  0.11288860  0.00055092     0.09500
H3022       H  0.25176137  0.14017342  0.01418459     0.11600
H3023       H  0.20220847  0.11372646  0.04800369     0.08200
H3024       H  0.19844707  0.08638587  0.03428324     0.11000
C3025       C  0.27624596  0.20766814  0.96918904    -0.03600
C3026       C  0.28669883  0.20038287  0.96618010    -0.06200
C3027       C  0.29920240  0.20634913  0.94840069    -0.21300
C3028       C  0.30173686  0.21988381  0.93344585     0.24400
C3029       C  0.29077445  0.22666582  0.93574359    -0.18900
C3030       C  0.27816303  0.22059693  0.95338928    -0.08800
C3031       C  0.31567577  0.22628953  0.91543786    -0.19100
C3032       C  0.32298875  0.24208469  0.90577619    -0.23900
C3033       C  0.33681300  0.24834822  0.88760419     0.26500
C3034       C  0.34767927  0.26604882  0.88472708    -0.20700
C3035       C  0.36048357  0.27242560  0.86734409    -0.10300
C3036       C  0.36257722  0.26121599  0.85218358    -0.10900
C3037       C  0.35160342  0.24350357  0.85495179    -0.03800
C3038       C  0.33888492  0.23713481  0.87243205    -0.18900
H3039       H  0.28547446  0.19031166  0.97791525     0.10200
H3040       H  0.30724290  0.20066841  0.94674753     0.10200
H3041       H  0.29186156  0.23665894  0.92401378     0.09900
H3042       H  0.27031557  0.22647722  0.95517297     0.11000
H3043       H  0.32062257  0.21790610  0.91093309     0.11100
H3044       H  0.31923413  0.25109967  0.91197666     0.13000
H3045       H  0.34625348  0.27498674  0.89597383     0.09500
H3046       H  0.36856559  0.28615852  0.86555946     0.11600
H3047       H  0.35275370  0.23451136  0.84348493     0.08200
H3048       H  0.33045259  0.22343917  0.87352734     0.11000
C3049       C  0.35593986  0.15609180  0.21414769    -0.03600
C3050       C  0.34504200  0.16034498  0.22634061    -0.06200
C3051       C  0.33375810  0.16380763  0.21373570    -0.21300
C3052       C  0.33304618  0.16297753  0.18876836     0.24400
C3053       C  0.34393589  0.15868209  0.17659376    -0.18900
C3054       C  0.35517041  0.15523197  0.18913208    -0.08800
C3055       C  0.32142361  0.16751085  0.17614919    -0.19100
C3056       C  0.31617212  0.16306404  0.15346013    -0.23900
C3057       C  0.30475832  0.16794745  0.14089190     0.26500
C3058       C  0.30378017  0.16697484  0.11593805    -0.20700
C3059       C  0.29327267  0.17158381  0.10346061    -0.10300
C3060       C  0.28346428  0.17719119  0.11576380    -0.10900
C3061       C  0.28425713  0.17787561  0.14075054    -0.03800
C3062       C  0.29464876  0.17322803  0.15315175    -0.18900
H3063       H  0.34532790  0.16115014  0.24556049     0.10200
H3064       H  0.32557600  0.16720657  0.22353428     0.10200
H3065       H  0.34425494  0.15839700  0.15740034     0.09900
H3066       H  0.36342035  0.15206937  0.17905849     0.11000
H3067       H  0.31719948  0.17491134  0.18624853     0.11100
H3068       H  0.32044279  0.15567847  0.14337980     0.13000
H3069       H  0.31129649  0.16278348  0.10604199     0.09500
H3070       H  0.29292137  0.17085430  0.08423293     0.11600
H3071       H  0.27678117  0.18198436  0.15090718     0.08200
H3072       H  0.29438827  0.17358667  0.17233025     0.11000
C3073       C  0.33717118  0.40856056  0.73757477    -0.03600
C3074       C  0.35093804  0.41675268  0.75352023    -0.06200
C3075       C  0.36415315  0.41280311  0.75341692    -0.21300
C3076       C  0.36403673  0.40099477  0.73697729     0.24400
C3077       C  0.35032597  0.39307310  0.72087802    -0.18900
C3078       C  0.33713167  0.39679735  0.72121384    -0.08800
C3079       C  0.37707096  0.39552444  0.73855888    -0.19100
C3080       C  0.38090235  0.38861432  0.71994820    -0.23900
C3081       C  0.38871945  0.37763907  0.72269958     0.26500
C3082       C  0.38304904  0.36344746  0.70757073    -0.20700
C3083       C  0.38754817  0.35098109  0.71196059    -0.10300
C3084       C  0.39834719  0.35280314  0.73103113    -0.10900
C3085       C  0.40522473  0.36768589  0.74499118    -0.03800
C3086       C  0.40032621  0.37997108  0.74101380    -0.18900
H3087       H  0.35120897  0.42576021  0.76645165     0.10200
H3088       H  0.37437786  0.41881765  0.76634731     0.10200
H3089       H  0.34927473  0.38339485  0.70857911     0.09900
H3090       H  0.32671933  0.39027803  0.70865584     0.11000
H3091       H  0.38223711  0.39563792  0.75603454     0.11100
H3092       H  0.37585793  0.38880032  0.70248849     0.13000
H3093       H  0.37423760  0.36144165  0.69319428     0.09500
H3094       H  0.38219938  0.33964934  0.70088137     0.11600
H3095       H  0.41360237  0.36932483  0.75978393     0.08200
H3096       H  0.40525899  0.39099338  0.75261357     0.11000
C3097       C  0.22034872  0.21866267  0.16543471    -0.03600
C3098       C  0.23033159  0.21832188  0.18446563    -0.06200
C3099       C  0.22685950  0.22068049  0.20785431    -0.21300
C3100       C  0.21315964  0.22321613  0.21318073     0.24400
C3101       C  0.20337298  0.22412207  0.19424170    -0.18900
C3102       C  0.20701620  0.22195827  0.17054086    -0.08800
C3103       C  0.20995565  0.22501059  0.23874618    -0.19100
C3104       C  0.19461692  0.22101427  0.24793498    -0.23900
C3105       C  0.19186652  0.22205729  0.27395345     0.26500
C3106       C  0.17874294  0.22500175  0.28127940    -0.20700
C3107       C  0.17648952  0.22719681  0.30537180    -0.10300
C3108       C  0.18718397  0.22628758  0.32291840    -0.10900
C3109       C  0.19961826  0.22223083  0.31574294    -0.03800
C3110       C  0.20193804  0.22013013  0.29154692    -0.18900
H3111       H  0.24088688  0.21609705  0.18135899     0.10200
H3112       H  0.23474909  0.22013746  0.22197374     0.10200
H3113       H  0.19301161  0.22657453  0.19763121     0.09900
H3114       H  0.19920476  0.22249362  0.15632443     0.11000
H3115       H  0.22075138  0.22910070  0.25070895     0.11100
H3116       H  0.18378184  0.21717511  0.23611905     0.13000
H3117       H  0.17055507  0.22618920  0.26824599     0.09500
H3118       H  0.16658452  0.23005490  0.31017993     0.11600
H3119       H  0.20794866  0.22125648  0.32872866     0.08200
H3120       H  0.21169210  0.21708380  0.28673744     0.11000
C3121       C  0.20792136  0.20164185  0.46919008    -0.03600
C3122       C  0.20445604  0.18751678  0.45482466    -0.06200
C3123       C  0.20730651  0.17459038  0.46317075    -0.21300
C3124       C  0.21393485  0.17541103  0.48600380     0.24400
C3125       C  0.21748240  0.18953216  0.50054638    -0.18900
C3126       C  0.21442589  0.20247507  0.49224023    -0.08800
C3127       C  0.21602839  0.16078652  0.49402998    -0.19100
C3128       C  0.22662646  0.16159409  0.51156742    -0.23900
C3129       C  0.22843756  0.14662327  0.51880131     0.26500
C3130       C  0.24366675  0.14949715  0.52971335    -0.20700
C3131       C  0.24566437  0.13575448  0.53713705    -0.10300
C3132       C  0.23230514  0.11877646  0.53429064    -0.10900
C3133       C  0.21701949  0.11589026  0.52351539    -0.03800
C3134       C  0.21511102  0.12959797  0.51580889    -0.18900
H3135       H  0.19927211  0.18626852  0.43709421     0.10200
H3136       H  0.20429333  0.16383803  0.45163597     0.10200
H3137       H  0.22223082  0.19044712  0.51846555     0.09900
H3138       H  0.21715616  0.21311431  0.50383607     0.11000
H3139       H  0.20903217  0.14897048  0.48403966     0.11100
H3140       H  0.23485141  0.17376078  0.52022314     0.13000
H3141       H  0.25408742  0.16244214  0.53246697     0.09500
H3142       H  0.25753089  0.13843092  0.54559125     0.11600
H3143       H  0.20645989  0.10297563  0.52107874     0.08200
H3144       H  0.20299498  0.12676353  0.50810064     0.11000
C3145       C  0.19807184  0.29178760  0.52087965    -0.03600
C3146       C  0.18713016  0.29751890  0.52903226    -0.06200
C3147       C  0.19240594  0.30980361  0.54694151    -0.21300
C3148       C  0.20885935  0.31694343  0.55668855     0.24400
C3149       C  0.21975100  0.31097692  0.54898564    -0.18900
C3150       C  0.21433311  0.29839070  0.53131447    -0.08800
C3151       C  0.21392319  0.33023128  0.57526876    -0.19100
C3152       C  0.23005836  0.34321120  0.57823558    -0.23900
C3153       C  0.23475204  0.35666886  0.59663677     0.26500
C3154       C  0.24949949  0.37274349  0.59356560    -0.20700
C3155       C  0.25464656  0.38536107  0.61116181    -0.10300
C3156       C  0.24513770  0.38211102  0.63225512    -0.10900
C3157       C  0.23022151  0.36610262  0.63506900    -0.03800
C3158       C  0.22516156  0.35351657  0.61761388    -0.18900
H3159       H  0.17450707  0.29259754  0.52139568     0.10200
H3160       H  0.18373416  0.31405953  0.55281453     0.10200
H3161       H  0.23236320  0.31593754  0.55664692     0.09900
H3162       H  0.22304224  0.29422249  0.52529788     0.11000
H3163       H  0.20366497  0.32992951  0.58565887     0.11100
H3164       H  0.24000124  0.34445825  0.56616651     0.13000
H3165       H  0.25714724  0.37548554  0.57760778     0.09500
H3166       H  0.26624134  0.39751887  0.60844238     0.11600
H3167       H  0.22271280  0.36300274  0.65120243     0.08200
H3168       H  0.21404914  0.34114936  0.62110095     0.11000
C3169       C  0.30876087  0.43955929  0.82640264    -0.03600
C3170       C  0.32624397  0.45115811  0.83011452    -0.06200
C3171       C  0.33293268  0.45507171  0.85324574    -0.21300
C3172       C  0.32231116  0.44757077  0.87312774     0.24400
C3173       C  0.30491989  0.43565454  0.86931946    -0.18900
C3174       C  0.29825090  0.43180211  0.84632602    -0.08800
C3175       C  0.32986392  0.45209918  0.89744345    -0.19100
C3176       C  0.32056217  0.44992788  0.91729848    -0.23900
C3177       C  0.32785290  0.45410751  0.94176349     0.26500
C3178       C  0.31682233  0.44664874  0.96127213    -0.20700
C3179       C  0.32313853  0.44990675  0.98458857    -0.10300
C3180       C  0.34067097  0.46076742  0.98890239    -0.10900
C3181       C  0.35160913  0.46870967  0.96938380    -0.03800
C3182       C  0.34530222  0.46547495  0.94614351    -0.18900
H3183       H  0.33472035  0.45731581  0.81520033     0.10200
H3184       H  0.34642865  0.46413589  0.85563106     0.10200
H3185       H  0.29637103  0.42898982  0.88392307     0.09900
H3186       H  0.28477079  0.42259032  0.84422008     0.11000
H3187       H  0.34359407  0.45750704  0.89876038     0.11100
H3188       H  0.30685177  0.44461321  0.91587694     0.13000
H3189       H  0.30328083  0.43800153  0.95844194     0.09500
H3190       H  0.31435467  0.44362554  0.99916367     0.11600
H3191       H  0.36516689  0.47739004  0.97200303     0.08200
H3192       H  0.35417687  0.47204730  0.93181328     0.11000
C3193       C  0.30993163  0.39634423  0.06967290    -0.03600
C3194       C  0.29908365  0.39085230  0.04977595    -0.06200
C3195       C  0.28655531  0.37349788  0.04733466    -0.21300
C3196       C  0.28434528  0.36154535  0.06507810     0.24400
C3197       C  0.29474593  0.36732621  0.08544548    -0.18900
C3198       C  0.30745056  0.38447372  0.08758778    -0.08800
C3199       C  0.27301095  0.34290618  0.06067887    -0.19100
C3200       C  0.26562049  0.33132419  0.07833228    -0.23900
C3201       C  0.25874052  0.31265780  0.07487720     0.26500
C3202       C  0.24622403  0.30072022  0.09042940    -0.20700
C3203       C  0.24159665  0.28335753  0.08971300    -0.10300
C3204       C  0.24982583  0.27782563  0.07386802    -0.10900
C3205       C  0.26187378  0.28968822  0.05782129    -0.03800
C3206       C  0.26624244  0.30683103  0.05825258    -0.18900
H3207       H  0.30087863  0.39975538  0.03564056     0.10200
H3208       H  0.27887586  0.36930686  0.03130377     0.10200
H3209       H  0.29378639  0.35846233  0.09914801     0.09900
H3210       H  0.31570888  0.38842331  0.10306998     0.11000
H3211       H  0.27162816  0.33853201  0.04239804     0.11100
H3212       H  0.26561134  0.33571798  0.09629872     0.13000
H3213       H  0.24038322  0.30493338  0.10357560     0.09500
H3214       H  0.23227600  0.27448707  0.10226536     0.11600
H3215       H  0.26834099  0.28578316  0.04524750     0.08200
H3216       H  0.27623757  0.31564499  0.04642285     0.11000
C3217       C  0.44094137  0.35307097  0.50079018    -0.03600
C3218       C  0.43022247  0.33568361  0.50626667    -0.06200
C3219       C  0.42808551  0.33007632  0.52993693    -0.21300
C3220       C  0.43663641  0.34167428  0.54858469     0.24400
C3221       C  0.44768558  0.35898200  0.54292555    -0.18900
C3222       C  0.44973682  0.36456017  0.51943694    -0.08800
C3223       C  0.43399731  0.33510526  0.57343913    -0.19100
C3224       C  0.44021375  0.34508311  0.59296308    -0.23900
C3225       C  0.43783269  0.33806311  0.61741865     0.26500
C3226       C  0.43527624  0.32162751  0.62182760    -0.20700
C3227       C  0.43273052  0.31524241  0.64493138    -0.10300
C3228       C  0.43288030  0.32517571  0.66425190    -0.10900
C3229       C  0.43610199  0.34187054  0.65999276    -0.03800
C3230       C  0.43860871  0.34825798  0.63676899    -0.18900
H3231       H  0.42332470  0.32647270  0.49235762     0.10200
H3232       H  0.41963837  0.31662048  0.53370131     0.10200
H3233       H  0.45496668  0.36841694  0.55631572     0.09900
H3234       H  0.45830397  0.37803013  0.51595396     0.11000
H3235       H  0.42626135  0.32134445  0.57564800     0.11100
H3236       H  0.44680235  0.35888435  0.59145242     0.13000
H3237       H  0.43536156  0.31365750  0.60755845     0.09500
H3238       H  0.43052609  0.30241342  0.64760977     0.11600
H3239       H  0.43626698  0.34983329  0.67449468     0.08200
H3240       H  0.44082000  0.36107130  0.63386047     0.11000
C3241       C  0.41352118  0.20798086  0.29861977    -0.03600
C3242       C  0.42917731  0.22335121  0.29606349    -0.06200
C3243       C  0.43068041  0.23905482  0.30227860    -0.21300
C3244       C  0.41666492  0.23991646  0.31139743     0.24400
C3245       C  0.40092611  0.22457500  0.31389173    -0.18900
C3246       C  0.39939422  0.20882647  0.30756782    -0.08800
C3247       C  0.41909851  0.25710912  0.31747148    -0.19100
C3248       C  0.40864093  0.25977332  0.33169349    -0.23900
C3249       C  0.41262844  0.27725531  0.33897536     0.26500
C3250       C  0.40836669  0.27973529  0.36200932    -0.20700
C3251       C  0.41310939  0.29616166  0.37011759    -0.10300
C3252       C  0.42193411  0.31052640  0.35518656    -0.10900
C3253       C  0.42537423  0.30792797  0.33166058    -0.03800
C3254       C  0.42083792  0.29147129  0.32365948    -0.18900
H3255       H  0.44031254  0.22330306  0.28906936     0.10200
H3256       H  0.44293397  0.25062678  0.29999917     0.10200
H3257       H  0.38967677  0.22462624  0.32030377     0.09900
H3258       H  0.38708434  0.19730138  0.30961971     0.11000
H3259       H  0.43072229  0.26818383  0.31105001     0.11100
H3260       H  0.39778137  0.24899221  0.34010518     0.13000
H3261       H  0.40185551  0.26899241  0.37406116     0.09500
H3262       H  0.41001684  0.29761571  0.38825269     0.11600
H3263       H  0.43198461  0.31865935  0.31963306     0.08200
H3264       H  0.42383070  0.28990277  0.30553696     0.11000
C3265       C  0.44164019  0.41401866  0.30343027    -0.03600
C3266       C  0.43641415  0.40492246  0.28188939    -0.06200
C3267       C  0.43204175  0.41160907  0.26235850    -0.21300
C3268       C  0.43250226  0.42735685  0.26404567     0.24400
C3269       C  0.43795853  0.43655320  0.28549246    -0.18900
C3270       C  0.44244600  0.42995523  0.30490921    -0.08800
C3271       C  0.42754110  0.43397683  0.24305794    -0.19100
C3272       C  0.42149287  0.44488549  0.24486649    -0.23900
C3273       C  0.41579314  0.45088541  0.22404796     0.26500
C3274       C  0.40259560  0.45464507  0.22701518    -0.20700
C3275       C  0.39655797  0.45987420  0.20767791    -0.10300
C3276       C  0.40394251  0.46190142  0.18507885    -0.10900
C3277       C  0.41759502  0.45874281  0.18231089    -0.03800
C3278       C  0.42340355  0.45320088  0.20154311    -0.18900
H3279       H  0.43576253  0.39267170  0.28009022     0.10200
H3280       H  0.42806888  0.40434713  0.24596379     0.10200
H3281       H  0.43902173  0.44897001  0.28731678     0.09900
H3282       H  0.44642143  0.43733105  0.32119597     0.11000
H3283       H  0.42792092  0.42889116  0.22572100     0.11100
H3284       H  0.41944210  0.44865007  0.26231620     0.13000
H3285       H  0.39667662  0.45315745  0.24425949     0.09500
H3286       H  0.38610152  0.46230851  0.21039672     0.11600
H3287       H  0.42354155  0.46016013  0.16510950     0.08200
H3288       H  0.43391503  0.45086814  0.19878676     0.11000
C3289       C  0.37505621  0.32364430  0.42148718    -0.03600
C3290       C  0.37082186  0.30635657  0.42054878    -0.06200
C3291       C  0.35361229  0.29321523  0.41875170    -0.21300
C3292       C  0.34045643  0.29719521  0.41746386     0.24400
C3293       C  0.34465224  0.31432331  0.42002353    -0.18900
C3294       C  0.36165071  0.32732213  0.42205828    -0.08800
C3295       C  0.32233608  0.28375051  0.41313154    -0.19100
C3296       C  0.31270449  0.28675763  0.39766177    -0.23900
C3297       C  0.29370430  0.27669455  0.39523171     0.26500
C3298       C  0.28612218  0.28340208  0.38011887    -0.20700
C3299       C  0.26850083  0.27688004  0.38030081    -0.10300
C3300       C  0.25788268  0.26322946  0.39527796    -0.10900
C3301       C  0.26512954  0.25543870  0.40898229    -0.03800
C3302       C  0.28296118  0.26216719  0.40906897    -0.18900
H3303       H  0.38079373  0.30304175  0.42014832     0.10200
H3304       H  0.35064411  0.28005222  0.41725002     0.10200
H3305       H  0.33473347  0.31772567  0.41998504     0.09900
H3306       H  0.36428643  0.34039367  0.42320357     0.11000
H3307       H  0.31702882  0.27189964  0.42310508     0.11100
H3308       H  0.31917929  0.29844309  0.38718098     0.13000
H3309       H  0.29397035  0.29450651  0.36917157     0.09500
H3310       H  0.26323990  0.28317989  0.36970687     0.11600
H3311       H  0.25720049  0.24504739  0.42096280     0.08200
H3312       H  0.28823160  0.25652449  0.42085872     0.11000
C3313       C  0.45467289  0.36321385  0.81263204    -0.03600
C3314       C  0.45462511  0.36590073  0.83729360    -0.06200
C3315       C  0.46657373  0.38163337  0.84754911    -0.21300
C3316       C  0.47905676  0.39491606  0.83350893     0.24400
C3317       C  0.47876239  0.39243425  0.80880479    -0.18900
C3318       C  0.46673961  0.37685373  0.79853159    -0.08800
C3319       C  0.49216934  0.41127283  0.84483746    -0.19100
C3320       C  0.50837406  0.42034540  0.83661124    -0.23900
C3321       C  0.52207505  0.43657342  0.84741724     0.26500
C3322       C  0.53921131  0.44079513  0.84471979    -0.20700
C3323       C  0.55258752  0.45627187  0.85346344    -0.10300
C3324       C  0.54920654  0.46818029  0.86463914    -0.10900
C3325       C  0.53204265  0.46403435  0.86724191    -0.03800
C3326       C  0.51860653  0.44834200  0.85890950    -0.18900
H3327       H  0.44544807  0.35580969  0.84871022     0.10200
H3328       H  0.46634065  0.38328152  0.86659270     0.10200
H3329       H  0.48779543  0.40257052  0.79732052     0.09900
H3330       H  0.46711416  0.37544270  0.77946106     0.11000
H3331       H  0.48869926  0.41532639  0.86103920     0.11100
H3332       H  0.51211513  0.41520365  0.82182866     0.13000
H3333       H  0.54227552  0.43205456  0.83576923     0.09500
H3334       H  0.56563286  0.45907435  0.85101527     0.11600
H3335       H  0.52899836  0.47291372  0.87579857     0.08200
H3336       H  0.50558144  0.44567601  0.86087943     0.11000
C3337       C  0.54092631  0.51710865  0.95115179    -0.03600
C3338       C  0.52558406  0.51085028  0.93836792    -0.06200
C3339       C  0.51042424  0.50695682  0.95005262    -0.21300
C3340       C  0.51024455  0.50930037  0.97470555     0.24400
C3341       C  0.52557123  0.51525570  0.98758594    -0.18900
C3342       C  0.54070922  0.51915419  0.97591598    -0.08800
C3343       C  0.49377565  0.50519424  0.98606977    -0.19100
C3344       C  0.49234303  0.50954502  0.00848438    -0.23900
C3345       C  0.47570912  0.50513971  0.01930867     0.26500
C3346       C  0.47375462  0.50262528  0.04395681    -0.20700
C3347       C  0.45827722  0.49842578  0.05489059    -0.10300
C3348       C  0.44446496  0.49684397  0.04138346    -0.10900
C3349       C  0.44653565  0.49966642  0.01668077    -0.03800
C3350       C  0.46201565  0.50382767  0.00575476    -0.18900
H3351       H  0.52526805  0.50898420  0.91931808     0.10200
H3352       H  0.49879217  0.50222271  0.93971548     0.10200
H3353       H  0.52610193  0.51682313  0.00664770     0.09900
H3354       H  0.55227028  0.52380950  0.98639352     0.11000
H3355       H  0.48230323  0.49826485  0.97534019     0.11100
H3356       H  0.50349082  0.51611698  0.01980475     0.13000
H3357       H  0.48417973  0.50368126  0.05475609     0.09500
H3358       H  0.45711264  0.49628140  0.07391146     0.11600
H3359       H  0.43620165  0.49867249  0.00573601     0.08200
H3360       H  0.46327338  0.50625099  0.98680892     0.11000
C3361       C  0.45579692  0.55829192  0.63115624    -0.03600
C3362       C  0.45506096  0.54339433  0.64016727    -0.06200
C3363       C  0.43969417  0.52987660  0.64877288    -0.21300
C3364       C  0.42463821  0.53074969  0.64818589     0.24400
C3365       C  0.42523807  0.54550735  0.63889012    -0.18900
C3366       C  0.44066151  0.55913215  0.63048148    -0.08800
C3367       C  0.40875897  0.51637577  0.65838098    -0.19100
C3368       C  0.39300239  0.51183819  0.65033036    -0.23900
C3369       C  0.37710849  0.49726436  0.66029828     0.26500
C3370       C  0.36246096  0.48907231  0.64590781    -0.20700
C3371       C  0.34701994  0.47589301  0.65501030    -0.10300
C3372       C  0.34580899  0.47079010  0.67890057    -0.10900
C3373       C  0.36060125  0.47879967  0.69318495    -0.03800
C3374       C  0.37604333  0.49190036  0.68404056    -0.18900
H3375       H  0.46641116  0.54222538  0.64087085     0.10200
H3376       H  0.43955391  0.51865477  0.65588918     0.10200
H3377       H  0.41393033  0.54674820  0.63865258     0.09900
H3378       H  0.44073784  0.57038130  0.62363432     0.11000
H3379       H  0.41024192  0.50870408  0.67202300     0.11100
H3380       H  0.39169023  0.51850535  0.63510757     0.13000
H3381       H  0.36293252  0.49298606  0.62757884     0.09500
H3382       H  0.33592263  0.47003541  0.64348234     0.11600
H3383       H  0.36018465  0.47523604  0.71166914     0.08200
H3384       H  0.38692223  0.49815130  0.69587531     0.11000
C3385       C  0.55266700  0.69119820  0.63871583    -0.03600
C3386       C  0.55782954  0.70541006  0.62364225    -0.06200
C3387       C  0.56042285  0.72098425  0.63247714    -0.21300
C3388       C  0.55761391  0.72283004  0.65652330     0.24400
C3389       C  0.55249681  0.70873654  0.67183510    -0.18900
C3390       C  0.55014727  0.69309433  0.66302489    -0.08800
C3391       C  0.56087555  0.73991507  0.66472167    -0.19100
C3392       C  0.55131655  0.74227460  0.68112554    -0.23900
C3393       C  0.55333420  0.75940234  0.68740297     0.26500
C3394       C  0.54209901  0.76012261  0.70410446    -0.20700
C3395       C  0.54337358  0.77578894  0.71040872    -0.10300
C3396       C  0.55606106  0.79123714  0.70032034    -0.10900
C3397       C  0.56721083  0.79053838  0.68351897    -0.03800
C3398       C  0.56587183  0.77493164  0.67708768    -0.18900
H3399       H  0.55982613  0.70453023  0.60483538     0.10200
H3400       H  0.56441486  0.73163118  0.62031264     0.10200
H3401       H  0.55054453  0.70986192  0.69058366     0.09900
H3402       H  0.54610126  0.68242930  0.67515071     0.11000
H3403       H  0.57074851  0.75075233  0.65513079     0.11100
H3404       H  0.54100486  0.73103690  0.68966811     0.13000
H3405       H  0.53228344  0.74849066  0.71240132     0.09500
H3406       H  0.53464006  0.77583609  0.72353821     0.11600
H3407       H  0.57707617  0.80215025  0.67524281     0.08200
H3408       H  0.57485213  0.77537819  0.66409368     0.11000
C3409       C  0.48222056  0.45670544  0.44459620    -0.03600
C3410       C  0.48072280  0.46966070  0.43293684    -0.06200
C3411       C  0.48444029  0.48467189  0.44497783    -0.21300
C3412       C  0.48966191  0.48698422  0.46885586     0.24400
C3413       C  0.49229875  0.47454216  0.47997336    -0.18900
C3414       C  0.48853405  0.45953929  0.46800716    -0.08800
C3415       C  0.49211448  0.50240526  0.48165925    -0.19100
C3416       C  0.49045220  0.50281479  0.50543360    -0.23900
C3417       C  0.49287624  0.51812946  0.51846319     0.26500
C3418       C  0.49799630  0.52018300  0.54238188    -0.20700
C3419       C  0.50114568  0.53480910  0.55501298    -0.10300
C3420       C  0.49911469  0.54762500  0.54394365    -0.10900
C3421       C  0.49314939  0.54512296  0.52032194    -0.03800
C3422       C  0.49003257  0.53053810  0.50772844    -0.18900
H3423       H  0.47602338  0.46792797  0.41484309     0.10200
H3424       H  0.48262988  0.49422760  0.43588435     0.10200
H3425       H  0.49714740  0.47623898  0.49795069     0.09900
H3426       H  0.49021500  0.44998211  0.47733015     0.11000
H3427       H  0.49490782  0.51352969  0.47099783     0.11100
H3428       H  0.48757845  0.49165553  0.51605374     0.13000
H3429       H  0.50002436  0.51065225  0.55112955     0.09500
H3430       H  0.50564751  0.53629495  0.57318557     0.11600
H3431       H  0.49112139  0.55458215  0.51136092     0.08200
H3432       H  0.48537246  0.52905615  0.48966367     0.11000
C3433       C  0.53551109  0.58825952  0.68843157    -0.03600
C3434       C  0.54439058  0.59890482  0.70779300    -0.06200
C3435       C  0.55102500  0.59319003  0.72581210    -0.21300
C3436       C  0.54878200  0.57665025  0.72513628     0.24400
C3437       C  0.53927319  0.56571075  0.70634586    -0.18900
C3438       C  0.53269727  0.57144081  0.68825445    -0.08800
C3439       C  0.55754615  0.57170209  0.74327877    -0.19100
C3440       C  0.55204139  0.55539331  0.74979039    -0.23900
C3441       C  0.56090702  0.55076196  0.76809465     0.26500
C3442       C  0.55112910  0.53713756  0.78360707    -0.20700
C3443       C  0.55899958  0.53287766  0.80165912    -0.10300
C3444       C  0.57691072  0.54192454  0.80428468    -0.10900
C3445       C  0.58677112  0.55502098  0.78793809    -0.03800
C3446       C  0.57884751  0.55947871  0.77011875    -0.18900
H3447       H  0.54681443  0.61191382  0.70859664     0.10200
H3448       H  0.55827215  0.60187104  0.74009260     0.10200
H3449       H  0.53755734  0.55299843  0.70492060     0.09900
H3450       H  0.52603786  0.56288988  0.67359303     0.11000
H3451       H  0.56862136  0.58195148  0.75221013     0.11100
H3452       H  0.54003467  0.54518712  0.74278719     0.13000
H3453       H  0.53730308  0.53012851  0.78224371     0.09500
H3454       H  0.55100230  0.52274139  0.81393392     0.11600
H3455       H  0.60057617  0.56230530  0.78950661     0.08200
H3456       H  0.58674863  0.56976725  0.75799823     0.11000
C3457       C  0.54342362  0.68857514  0.33234210    -0.03600
C3458       C  0.53768032  0.69682758  0.34784015    -0.06200
C3459       C  0.53474232  0.69227564  0.37184325    -0.21300
C3460       C  0.53754378  0.67943490  0.38095860     0.24400
C3461       C  0.54276366  0.67074403  0.36528425    -0.18900
C3462       C  0.54558948  0.67523379  0.34115069    -0.08800
C3463       C  0.53613746  0.67637655  0.40707737    -0.19100
C3464       C  0.53236954  0.66131891  0.41683668    -0.23900
C3465       C  0.53090233  0.65829754  0.44285539     0.26500
C3466       C  0.51814234  0.64238927  0.45116838    -0.20700
C3467       C  0.51725857  0.63824733  0.47515720    -0.10300
C3468       C  0.52940742  0.64976115  0.49149892    -0.10900
C3469       C  0.54187539  0.66604692  0.48340532    -0.03800
C3470       C  0.54258838  0.67031370  0.45920010    -0.18900
H3471       H  0.53595319  0.70719248  0.34149665     0.10200
H3472       H  0.53068212  0.69912006  0.38347639     0.10200
H3473       H  0.54547179  0.66106631  0.37177084     0.09900
H3474       H  0.55040330  0.66896349  0.32969662     0.11000
H3475       H  0.53762344  0.68667540  0.41863177     0.11100
H3476       H  0.52915330  0.65042410  0.40541578     0.13000
H3477       H  0.50895629  0.63299433  0.43895315     0.09500
H3478       H  0.50728755  0.62568058  0.48076392     0.11600
H3479       H  0.55146015  0.67513737  0.49549340     0.08200
H3480       H  0.55271318  0.68264047  0.45310196     0.11000
C3481       C  0.43476154  0.54242669  0.12853250    -0.03600
C3482       C  0.44975458  0.54321905  0.13728564    -0.06200
C3483       C  0.46296724  0.55838097  0.14704884    -0.21300
C3484       C  0.46176426  0.57326343  0.14788627     0.24400
C3485       C  0.44695924  0.57267536  0.13884599    -0.18900
C3486       C  0.43358403  0.55741118  0.12937565    -0.08800
C3487       C  0.47575701  0.58885214  0.15944709    -0.19100
C3488       C  0.48121394  0.60487269  0.15157919    -0.23900
C3489       C  0.49583434  0.62017358  0.16277701     0.26500
C3490       C  0.50738153  0.63385809  0.14845680    -0.20700
C3491       C  0.52096231  0.64859642  0.15864611    -0.10300
C3492       C  0.52307485  0.65014276  0.18349703    -0.10900
C3493       C  0.51153865  0.63630841  0.19778696    -0.03800
C3494       C  0.49811515  0.62151284  0.18756345    -0.18900
H3495       H  0.45122094  0.53203648  0.13692576     0.10200
H3496       H  0.47422766  0.55850144  0.15395324     0.10200
H3497       H  0.44551329  0.58386109  0.13968239     0.09900
H3498       H  0.42223989  0.55732072  0.12293511     0.11000
H3499       H  0.48260871  0.58697327  0.17394749     0.11100
H3500       H  0.47559994  0.60674343  0.13557415     0.13000
H3501       H  0.50588878  0.63312781  0.12930745     0.09500
H3502       H  0.52954478  0.65894317  0.14705558     0.11600
H3503       H  0.51262171  0.63702503  0.21698130     0.08200
H3504       H  0.48923066  0.61132108  0.19911314     0.11000
C3505       C  0.54607702  0.87297563  0.13825726    -0.03600
C3506       C  0.54345197  0.86943680  0.16275065    -0.06200
C3507       C  0.54600129  0.85679612  0.17310094    -0.21300
C3508       C  0.55142620  0.84741339  0.15941275     0.24400
C3509       C  0.55403874  0.85085957  0.13484594    -0.18900
C3510       C  0.55136260  0.86347003  0.12440815    -0.08800
C3511       C  0.55318892  0.83356388  0.17129602    -0.19100
C3512       C  0.56242890  0.82680830  0.16260317    -0.23900
C3513       C  0.56335914  0.81245758  0.17436581     0.26500
C3514       C  0.57773922  0.81069803  0.17044807    -0.20700
C3515       C  0.57864073  0.79685560  0.18004917    -0.10300
C3516       C  0.56499936  0.78416840  0.19346860    -0.10900
C3517       C  0.55062022  0.78596252  0.19750947    -0.03800
C3518       C  0.54982425  0.79996176  0.18815599    -0.18900
H3519       H  0.53917521  0.87628772  0.17398295     0.10200
H3520       H  0.54366847  0.85430686  0.19197045     0.10200
H3521       H  0.55773029  0.84360116  0.12349386     0.09900
H3522       H  0.55334744  0.86569997  0.10545409     0.11000
H3523       H  0.54694394  0.82910901  0.18840471     0.11100
H3524       H  0.57003324  0.83223455  0.14667337     0.13000
H3525       H  0.58830970  0.82004750  0.15981781     0.09500
H3526       H  0.58992725  0.79592206  0.17651836     0.11600
H3527       H  0.53992765  0.77649478  0.20782179     0.08200
H3528       H  0.53835541  0.80064150  0.19114833     0.11000
C3529       C  0.61816881  0.79062008  0.28299520    -0.03600
C3530       C  0.63322157  0.80330149  0.27220263    -0.06200
C3531       C  0.64506275  0.81749127  0.28530360    -0.21300
C3532       C  0.64207385  0.81924345  0.30936252     0.24400
C3533       C  0.62654125  0.80701449  0.31974091    -0.18900
C3534       C  0.61478196  0.79282517  0.30672944    -0.08800
C3535       C  0.65533283  0.83404267  0.32294105    -0.19100
C3536       C  0.65671309  0.83417634  0.34682556    -0.23900
C3537       C  0.66980122  0.84919854  0.36017288     0.26500
C3538       C  0.66610803  0.85210749  0.38336341    -0.20700
C3539       C  0.67778174  0.86673065  0.39591506    -0.10300
C3540       C  0.69341281  0.87862857  0.38547936    -0.10900
C3541       C  0.69742930  0.87521796  0.36271338    -0.03800
C3542       C  0.68579950  0.86064077  0.35023220    -0.18900
H3543       H  0.63612976  0.80196502  0.25392715     0.10200
H3544       H  0.65681492  0.82689642  0.27679971     0.10200
H3545       H  0.62333981  0.80829241  0.33784986     0.09900
H3546       H  0.60308708  0.78345004  0.31539372     0.11000
H3547       H  0.66439260  0.84511132  0.31273378     0.11100
H3548       H  0.64769422  0.82321238  0.35720315     0.13000
H3549       H  0.65391975  0.84333419  0.39147134     0.09500
H3550       H  0.67430358  0.86903194  0.41337346     0.11600
H3551       H  0.70948925  0.88400124  0.35430770     0.08200
H3552       H  0.68938153  0.85843043  0.33281005     0.11000
C3553       C  0.76868932  0.98753546  0.01806808    -0.03600
C3554       C  0.77226756  0.98705191  0.99381194    -0.06200
C3555       C  0.77045266  0.97206087  0.98356170    -0.21300
C3556       C  0.76477097  0.95708702  0.99713290     0.24400
C3557       C  0.76098774  0.95750697  0.02131550    -0.18900
C3558       C  0.76290576  0.97249656  0.03159804    -0.08800
C3559       C  0.76381231  0.94159423  0.98593126    -0.19100
C3560       C  0.75334609  0.92547003  0.99380526    -0.23900
C3561       C  0.75234979  0.90970569  0.98348865     0.26500
C3562       C  0.73798302  0.89373074  0.98876681    -0.20700
C3563       C  0.73654994  0.87851198  0.98012498    -0.10300
C3564       C  0.74958369  0.87877341  0.96614734    -0.10900
C3565       C  0.76414582  0.89474551  0.96117974    -0.03800
C3566       C  0.76549979  0.91002364  0.96964022    -0.18900
H3567       H  0.77687278  0.99837672  0.98283469     0.10200
H3568       H  0.77360130  0.97219314  0.96495536     0.10200
H3569       H  0.75706720  0.94645910  0.03261585     0.09900
H3570       H  0.76015310  0.97235922  0.05035774     0.11000
H3571       H  0.77159800  0.94361324  0.97026601     0.11100
H3572       H  0.74453149  0.92353123  0.00815932     0.13000
H3573       H  0.72774345  0.89300175  0.99963125     0.09500
H3574       H  0.72525482  0.86648952  0.98461770     0.11600
H3575       H  0.77449383  0.89545889  0.95060882     0.08200
H3576       H  0.77700230  0.92196084  0.96564678     0.11000
C3577       C  0.67420491  0.61496096  0.91690974    -0.03600
C3578       C  0.68680288  0.62028227  0.93465187    -0.06200
C3579       C  0.69933183  0.63765349  0.93673342    -0.21300
C3580       C  0.69976236  0.64983570  0.92069875     0.24400
C3581       C  0.68762108  0.64428996  0.90230283    -0.18900
C3582       C  0.67498729  0.62710871  0.90052038    -0.08800
C3583       C  0.71124096  0.66840532  0.92524511    -0.19100
C3584       C  0.71692119  0.68028107  0.90781581    -0.23900
C3585       C  0.72389025  0.69880224  0.91253162     0.26500
C3586       C  0.73509411  0.71112468  0.89615071    -0.20700
C3587       C  0.73963797  0.72838749  0.89848970    -0.10300
C3588       C  0.73258313  0.73339347  0.91686324    -0.10900
C3589       C  0.72183463  0.72116243  0.93357872    -0.03800
C3590       C  0.71760182  0.70411376  0.93154364    -0.18900
H3591       H  0.68642760  0.61121060  0.94758859     0.10200
H3592       H  0.70842231  0.64166729  0.95125388     0.10200
H3593       H  0.68722613  0.65333347  0.89004259     0.09900
H3594       H  0.66546089  0.62337868  0.88661322     0.11000
H3595       H  0.71417578  0.67246428  0.94366067     0.11100
H3596       H  0.71539488  0.67623612  0.88935897     0.13000
H3597       H  0.73991882  0.70728959  0.88116734     0.09500
H3598       H  0.74784352  0.73758113  0.88528402     0.11600
H3599       H  0.71622927  0.72472364  0.94790704     0.08200
H3600       H  0.70857257  0.69496432  0.94410283     0.11000
C3601       C  0.70135324  0.80214009  0.02535359    -0.03600
C3602       C  0.69254460  0.81119978  0.02803635    -0.06200
C3603       C  0.67972328  0.80631828  0.04518305    -0.21300
C3604       C  0.67502100  0.79198267  0.05963765     0.24400
C3605       C  0.68398461  0.78302468  0.05734042    -0.18900
C3606       C  0.69710614  0.78813594  0.04045906    -0.08800
C3607       C  0.66098714  0.78701141  0.07721194    -0.19100
C3608       C  0.64972258  0.77057163  0.08266296    -0.23900
C3609       C  0.63543742  0.76482185  0.10022540     0.26500
C3610       C  0.62529605  0.74718949  0.10457495    -0.20700
C3611       C  0.61265760  0.74098626  0.12211520    -0.10300
C3612       C  0.60987743  0.75226648  0.13604359    -0.10900
C3613       C  0.61944418  0.76988560  0.13111864    -0.03800
C3614       C  0.63199901  0.77611539  0.11327611    -0.18900
H3615       H  0.69541793  0.82197390  0.01660653     0.10200
H3616       H  0.67311179  0.81349869  0.04671998     0.10200
H3617       H  0.68091741  0.77213037  0.06860751     0.09900
H3618       H  0.70349704  0.78076384  0.03864598     0.11000
H3619       H  0.65959281  0.79727039  0.08473991     0.11100
H3620       H  0.65105447  0.76063556  0.07374446     0.13000
H3621       H  0.62750468  0.73813278  0.09484061     0.09500
H3622       H  0.60566149  0.72735066  0.12558187     0.11600
H3623       H  0.61752750  0.77888891  0.14148190     0.08200
H3624       H  0.63917114  0.78977061  0.11042122     0.11000
C3625       C  0.69109896  0.82528243  0.87767071    -0.03600
C3626       C  0.67684971  0.82432273  0.88920418    -0.06200
C3627       C  0.66484762  0.82662981  0.87638081    -0.21300
C3628       C  0.66674886  0.82980587  0.85178708     0.24400
C3629       C  0.68121819  0.83119996  0.84037518    -0.18900
C3630       C  0.69317726  0.82888366  0.85313900    -0.08800
C3631       C  0.65373003  0.83215116  0.83880365    -0.19100
C3632       C  0.65047149  0.82903770  0.81533153    -0.23900
C3633       C  0.63773475  0.83192688  0.80249736     0.26500
C3634       C  0.63988220  0.83574561  0.77806171    -0.20700
C3635       C  0.62874259  0.83970064  0.76588801    -0.10300
C3636       C  0.61519364  0.83980209  0.77798565    -0.10900
C3637       C  0.61255674  0.83506511  0.80211870    -0.03800
C3638       C  0.62359551  0.83107516  0.81418398    -0.18900
H3639       H  0.67483176  0.82153764  0.90804005     0.10200
H3640       H  0.65389746  0.82568591  0.88564018     0.10200
H3641       H  0.68352026  0.83431845  0.82167478     0.09900
H3642       H  0.70413807  0.82999033  0.84372575     0.11000
H3643       H  0.64654639  0.83651707  0.84920193     0.11100
H3644       H  0.65769839  0.82474727  0.80488231     0.13000
H3645       H  0.65052177  0.83619885  0.76855230     0.09500
H3646       H  0.63105278  0.84319417  0.74727239     0.11600
H3647       H  0.60199004  0.83459407  0.81185044     0.08200
H3648       H  0.62097979  0.82736507  0.83267143     0.11000
C3649       C  0.78190285  0.77979552  0.66924674    -0.03600
C3650       C  0.79215416  0.78011449  0.68832898    -0.06200
C3651       C  0.78910929  0.78348270  0.71152650    -0.21300
C3652       C  0.77552301  0.78641294  0.71643588     0.24400
C3653       C  0.76540985  0.78634981  0.69731539    -0.18900
C3654       C  0.76853772  0.78307888  0.67400220    -0.08800
C3655       C  0.77184341  0.79012127  0.74096467    -0.19100
C3656       C  0.77790762  0.78686812  0.76116305    -0.23900
C3657       C  0.77434482  0.79081623  0.78559532     0.26500
C3658       C  0.77657545  0.78250478  0.80532463    -0.20700
C3659       C  0.77294853  0.78558398  0.82847922    -0.10300
C3660       C  0.76700298  0.79707986  0.83237825    -0.10900
C3661       C  0.76550211  0.80592050  0.81273444    -0.03800
C3662       C  0.76918334  0.80291334  0.78971965    -0.18900
H3663       H  0.80263832  0.77776061  0.68535805     0.10200
H3664       H  0.79762347  0.78395243  0.72538545     0.10200
H3665       H  0.75492781  0.78868808  0.70045202     0.09900
H3666       H  0.76028702  0.78279184  0.65980434     0.11000
H3667       H  0.76328678  0.79524316  0.74226329     0.11100
H3668       H  0.78524839  0.78039671  0.76007308     0.13000
H3669       H  0.78080769  0.77332156  0.80276584     0.09500
H3670       H  0.77429116  0.77859214  0.84318575     0.11600
H3671       H  0.76129518  0.81513911  0.81509980     0.08200
H3672       H  0.76801521  0.81019672  0.77531766     0.11000
C3673       C  0.76856772  0.80298574  0.52002802    -0.03600
C3674       C  0.76214373  0.80115677  0.49678099    -0.06200
C3675       C  0.75906496  0.81366170  0.48697270    -0.21300
C3676       C  0.76270315  0.82840053  0.49997112     0.24400
C3677       C  0.76944178  0.83035088  0.52304397    -0.18900
C3678       C  0.77229087  0.81780313  0.53292807    -0.08800
C3679       C  0.75839420  0.84101052  0.48976840    -0.19100
C3680       C  0.76675142  0.85769502  0.49586151    -0.23900
C3681       C  0.76213360  0.87027527  0.48663738     0.26500
C3682       C  0.77513406  0.88728364  0.48332584    -0.20700
C3683       C  0.77130685  0.89961923  0.47522847    -0.10300
C3684       C  0.75428978  0.89533386  0.47071058    -0.10900
C3685       C  0.74117441  0.87833995  0.47462555    -0.03800
C3686       C  0.74506486  0.86590321  0.48237073    -0.18900
H3687       H  0.75918068  0.78991803  0.48637705     0.10200
H3688       H  0.75378586  0.81180542  0.46920338     0.10200
H3689       H  0.77204603  0.84129985  0.53385437     0.09900
H3690       H  0.77740799  0.81972429  0.55080400     0.11000
H3691       H  0.74831896  0.83649773  0.47647853     0.11100
H3692       H  0.77795522  0.86259829  0.50723444     0.13000
H3693       H  0.78835253  0.89101090  0.48678985     0.09500
H3694       H  0.78173271  0.91257637  0.47261526     0.11600
H3695       H  0.72792345  0.87460657  0.47148370     0.08200
H3696       H  0.73471177  0.85297698  0.48543017     0.11000
C3697       C  0.71774292  0.74414486  0.59488167    -0.03600
C3698       C  0.70745228  0.73196691  0.61185041    -0.06200
C3699       C  0.68984334  0.72546344  0.61203867    -0.21300
C3700       C  0.68206859  0.73071671  0.59495346     0.24400
C3701       C  0.69258131  0.74404748  0.57920805    -0.18900
C3702       C  0.71036635  0.75079687  0.57931308    -0.08800
C3703       C  0.66314516  0.72022841  0.59259949    -0.19100
C3704       C  0.65357804  0.72159017  0.57522901    -0.23900
C3705       C  0.63573154  0.70750149  0.57135774     0.26500
C3706       C  0.62246119  0.71081860  0.56607773    -0.20700
C3707       C  0.60542730  0.69728245  0.56469055    -0.10300
C3708       C  0.60155861  0.68024937  0.56808662    -0.10900
C3709       C  0.61515982  0.67706870  0.57147792    -0.03800
C3710       C  0.63194018  0.69046019  0.57310335    -0.18900
H3711       H  0.71292761  0.72670054  0.62403147     0.10200
H3712       H  0.68214732  0.71535776  0.62454057     0.10200
H3713       H  0.68717308  0.74863049  0.56595152     0.09900
H3714       H  0.71813454  0.76014679  0.56597712     0.11000
H3715       H  0.65678077  0.70949715  0.60482882     0.11100
H3716       H  0.65878080  0.73250953  0.56335315     0.13000
H3717       H  0.62517972  0.72387335  0.56406146     0.09500
H3718       H  0.59530159  0.70017673  0.56173733     0.11600
H3719       H  0.61286803  0.66417769  0.57373870     0.08200
H3720       H  0.64198888  0.68745526  0.57613826     0.11000
C3721       C  0.64323648  0.54441457  0.00155887    -0.03600
C3722       C  0.65983654  0.55701446  0.00818290    -0.06200
C3723       C  0.66503574  0.55876194  0.03204375    -0.21300
C3724       C  0.65379010  0.54802845  0.04982475     0.24400
C3725       C  0.63750085  0.53484827  0.04297111    -0.18900
C3726       C  0.63231133  0.53311323  0.01920858    -0.08800
C3727       C  0.65961410  0.55105083  0.07512510    -0.19100
C3728       C  0.64911302  0.54506339  0.09424185    -0.23900
C3729       C  0.65552198  0.54937517  0.11920293     0.26500
C3730       C  0.64481793  0.54962384  0.13720370    -0.20700
C3731       C  0.65094925  0.55457107  0.16053340    -0.10300
C3732       C  0.66791122  0.55930429  0.16624892    -0.10900
C3733       C  0.67831432  0.55836544  0.14840538    -0.03800
C3734       C  0.67219098  0.55333802  0.12532220    -0.18900
H3735       H  0.66857724  0.56591659  0.99512696     0.10200
H3736       H  0.67776825  0.56888145  0.03673293     0.10200
H3737       H  0.62864240  0.52586744  0.05580761     0.09900
H3738       H  0.61950435  0.52303978  0.01475104     0.11000
H3739       H  0.67319352  0.55959458  0.07800762     0.11100
H3740       H  0.63536492  0.53778359  0.09171828     0.13000
H3741       H  0.63182931  0.54640955  0.13306105     0.09500
H3742       H  0.64261354  0.55514403  0.17386839     0.11600
H3743       H  0.69133435  0.56156365  0.15227651     0.08200
H3744       H  0.68060605  0.55256207  0.11235477     0.11000
C3745       C  0.52420248  0.44549229  0.36547382    -0.03600
C3746       C  0.52417800  0.45939154  0.35411937    -0.06200
C3747       C  0.53942562  0.47383877  0.34716289    -0.21300
C3748       C  0.55530464  0.47505961  0.35140369     0.24400
C3749       C  0.55548752  0.46118927  0.36272472    -0.18900
C3750       C  0.54009362  0.44657193  0.36967629    -0.08800
C3751       C  0.57101179  0.49063247  0.34241104    -0.19100
C3752       C  0.58724127  0.49570299  0.34913670    -0.23900
C3753       C  0.60272307  0.51084749  0.33863895     0.26500
C3754       C  0.61849744  0.51772913  0.35060031    -0.20700
C3755       C  0.63353376  0.53103230  0.34049945    -0.10300
C3756       C  0.63325044  0.53766214  0.31793244    -0.10900
C3757       C  0.61744130  0.53102408  0.30616959    -0.03800
C3758       C  0.60240010  0.51786007  0.31634579    -0.18900
H3759       H  0.51229330  0.45915436  0.35043398     0.10200
H3760       H  0.53877085  0.48416339  0.33832940     0.10200
H3761       H  0.56739317  0.46138504  0.36585412     0.09900
H3762       H  0.54064205  0.43613136  0.37829442     0.11000
H3763       H  0.56886390  0.49852141  0.32992848     0.11100
H3764       H  0.58940354  0.48866843  0.36304701     0.13000
H3765       H  0.61925012  0.51260504  0.36769730     0.09500
H3766       H  0.64548681  0.53573312  0.35003244     0.11600
H3767       H  0.61672479  0.53583334  0.28881255     0.08200
H3768       H  0.59073352  0.51285205  0.30612280     0.11000
C3769       C  0.73758089  0.62348262  0.36121335    -0.03600
C3770       C  0.75531001  0.63154020  0.36521546    -0.06200
C3771       C  0.76296387  0.64354395  0.38351087    -0.21300
C3772       C  0.75319851  0.64814876  0.39783419     0.24400
C3773       C  0.73538388  0.63983018  0.39421722    -0.18900
C3774       C  0.72766290  0.62755708  0.37619375    -0.08800
C3775       C  0.76204818  0.66157462  0.41637355    -0.19100
C3776       C  0.75670307  0.67245276  0.42310785    -0.23900
C3777       C  0.76609888  0.68672041  0.44039264     0.26500
C3778       C  0.76377526  0.70095031  0.43927456    -0.20700
C3779       C  0.77128389  0.71406924  0.45614592    -0.10300
C3780       C  0.78113351  0.71319029  0.47490604    -0.10900
C3781       C  0.78400772  0.69922637  0.47553266    -0.03800
C3782       C  0.77656782  0.68613535  0.45851226    -0.18900
H3783       H  0.76331712  0.62873368  0.35396926     0.10200
H3784       H  0.77667504  0.64964361  0.38603672     0.10200
H3785       H  0.72739080  0.64276014  0.40527237     0.09900
H3786       H  0.71399498  0.62170660  0.37343647     0.11000
H3787       H  0.77410982  0.66342298  0.42316420     0.11100
H3788       H  0.74549738  0.67156701  0.41456282     0.13000
H3789       H  0.75583353  0.70178145  0.42549458     0.09500
H3790       H  0.76874904  0.72456312  0.45500760     0.11600
H3791       H  0.79141367  0.69800928  0.48976574     0.08200
H3792       H  0.77844946  0.67526113  0.46025160     0.11000
C3793       C  0.58110259  0.65691678  0.25247100    -0.03600
C3794       C  0.57248739  0.64377925  0.26922594    -0.06200
C3795       C  0.57693969  0.63101783  0.27196689    -0.21300
C3796       C  0.58958596  0.63096546  0.25744313     0.24400
C3797       C  0.59770840  0.64383861  0.24027043    -0.18900
C3798       C  0.59354038  0.65661941  0.23786164    -0.08800
C3799       C  0.59589760  0.61890773  0.26192029    -0.19100
C3800       C  0.60184315  0.61329893  0.24415954    -0.23900
C3801       C  0.61366779  0.60665302  0.24817578     0.26500
C3802       C  0.62598447  0.61351282  0.26631949    -0.20700
C3803       C  0.63891639  0.60941557  0.26767120    -0.10300
C3804       C  0.63974085  0.59818780  0.25116762    -0.10900
C3805       C  0.62712174  0.59082001  0.23346686    -0.03800
C3806       C  0.61433701  0.59527396  0.23175388    -0.18900
H3807       H  0.56294383  0.64382251  0.28081299     0.10200
H3808       H  0.57073366  0.62136455  0.28561680     0.10200
H3809       H  0.60790913  0.64453783  0.22936582     0.09900
H3810       H  0.60038582  0.66657405  0.22478047     0.11000
H3811       H  0.59711966  0.61589918  0.28027054     0.11100
H3812       H  0.59921982  0.61505602  0.22582542     0.13000
H3813       H  0.62621239  0.62277255  0.27874363     0.09500
H3814       H  0.64854161  0.61532566  0.28143617     0.11600
H3815       H  0.62762104  0.58229768  0.22037378     0.08200
H3816       H  0.60518379  0.59013804  0.21730824     0.11000
C3817       C  0.85413434  0.55635154  0.34888987    -0.03600
C3818       C  0.85261019  0.55684197  0.32399931    -0.06200
C3819       C  0.83985587  0.55935491  0.31377427    -0.21300
C3820       C  0.82843895  0.56164807  0.32810512     0.24400
C3821       C  0.82991847  0.56113811  0.35295956    -0.18900
C3822       C  0.84255876  0.55849681  0.36318724    -0.08800
C3823       C  0.81447541  0.56346329  0.31677148    -0.19100
C3824       C  0.80767761  0.57226101  0.32685271    -0.23900
C3825       C  0.79305194  0.57343265  0.31661764     0.26500
C3826       C  0.79126381  0.58753015  0.32261597    -0.20700
C3827       C  0.77733133  0.58879918  0.31436966    -0.10300
C3828       C  0.76459162  0.57583228  0.30018880    -0.10900
C3829       C  0.76619689  0.56153784  0.29444039    -0.03800
C3830       C  0.78032835  0.56039105  0.30244440    -0.18900
H3831       H  0.86120552  0.55517654  0.31236439     0.10200
H3832       H  0.83891750  0.55953471  0.29458158     0.10200
H3833       H  0.82103042  0.56231508  0.36458859     0.09900
H3834       H  0.84313664  0.55798609  0.38238029     0.11000
H3835       H  0.81001354  0.55774313  0.29936554     0.11100
H3836       H  0.81337143  0.57938063  0.34308554     0.13000
H3837       H  0.80072429  0.59765283  0.33373737     0.09500
H3838       H  0.77644841  0.59990722  0.31937680     0.11600
H3839       H  0.75659148  0.55129042  0.28364293     0.08200
H3840       H  0.78102585  0.54910479  0.29800084     0.11000
C3841       C  0.20944061  0.80078594  0.20315862    -0.03600
C3842       C  0.19409829  0.79985198  0.19576927    -0.06200
C3843       C  0.18051258  0.78449728  0.18690016    -0.21300
C3844       C  0.18180503  0.76964537  0.18545085     0.24400
C3845       C  0.19708283  0.77053505  0.19297635    -0.18900
C3846       C  0.21067060  0.78586481  0.20173208    -0.08800
C3847       C  0.16740105  0.75373286  0.17492493    -0.19100
C3848       C  0.16424075  0.73781796  0.18027289    -0.23900
C3849       C  0.14990914  0.72194897  0.16963567     0.26500
C3850       C  0.14231123  0.70670333  0.18290588    -0.20700
C3851       C  0.12917860  0.69141712  0.17318546    -0.10300
C3852       C  0.12357190  0.69092478  0.14969600    -0.10900
C3853       C  0.13131398  0.70621883  0.13636587    -0.03800
C3854       C  0.14426020  0.72153145  0.14621143    -0.18900
H3855       H  0.19263215  0.81102739  0.19658290     0.10200
H3856       H  0.16893640  0.78422307  0.18111304     0.10200
H3857       H  0.19880284  0.75954874  0.19153135     0.09900
H3858       H  0.22228665  0.78605257  0.20704654     0.11000
H3859       H  0.15869929  0.75518330  0.16309393     0.11100
H3860       H  0.17187943  0.73620349  0.19383209     0.13000
H3861       H  0.14654573  0.70663052  0.20091221     0.09500
H3862       H  0.12367830  0.67991087  0.18391676     0.11600
H3863       H  0.12747978  0.70635722  0.11815271     0.08200
H3864       H  0.15013452  0.73291091  0.13523012     0.11000
C3865       C  0.03350305  0.58592800  0.19004184    -0.03600
C3866       C  0.02573756  0.56821886  0.19413851    -0.06200
C3867       C  0.01283962  0.56026886  0.21116822    -0.21300
C3868       C  0.00716567  0.56976034  0.22405222     0.24400
C3869       C  0.01518770  0.58754804  0.22035797    -0.18900
C3870       C  0.02826571  0.59554926  0.20356810    -0.08800
C3871       C  0.99326251  0.56085863  0.24173394    -0.19100
C3872       C  0.98224106  0.56624819  0.24731291    -0.23900
C3873       C  0.96877885  0.55816416  0.26585800     0.26500
C3874       C  0.95532816  0.56171445  0.26596855    -0.20700
C3875       C  0.94323592  0.55566813  0.28428222    -0.10300
C3876       C  0.94438300  0.54598397  0.30304567    -0.10900
C3877       C  0.95760984  0.54205263  0.30259084    -0.03800
C3878       C  0.96969434  0.54810446  0.28429221    -0.18900
H3879       H  0.02955115  0.56047730  0.18403884     0.10200
H3880       H  0.00702249  0.54659848  0.21393646     0.10200
H3881       H  0.01149496  0.59534179  0.23052714     0.09900
H3882       H  0.03395938  0.60919691  0.20072896     0.11000
H3883       H  0.99171933  0.54917114  0.24951119     0.11100
H3884       H  0.98291150  0.57698077  0.23763230     0.13000
H3885       H  0.95435895  0.56949429  0.25205686     0.09500
H3886       H  0.93327767  0.55900651  0.28405476     0.11600
H3887       H  0.95898043  0.53471734  0.31678410     0.08200
H3888       H  0.98006140  0.54540788  0.28528758     0.11000
C3889       C  0.87930383  0.76587891  0.03423707    -0.03600
C3890       C  0.86640761  0.75310702  0.01998995    -0.06200
C3891       C  0.85315731  0.75515673  0.01066434    -0.21300
C3892       C  0.85213173  0.76986083  0.01560989     0.24400
C3893       C  0.86500532  0.78269657  0.02989716    -0.18900
C3894       C  0.87844623  0.78074012  0.03901947    -0.08800
C3895       C  0.83782084  0.77145366  0.00473402    -0.19100
C3896       C  0.83186424  0.78145645  0.01340656    -0.23900
C3897       C  0.81731983  0.78275441  0.00265590     0.26500
C3898       C  0.80878417  0.78912758  0.01653973    -0.20700
C3899       C  0.79561023  0.79128818  0.00691025    -0.10300
C3900       C  0.79073757  0.78733248  0.98294940    -0.10900
C3901       C  0.79916894  0.78076926  0.96913433    -0.03800
C3902       C  0.81224136  0.77852549  0.97878008    -0.18900
H3903       H  0.86665368  0.74154257  0.01572049     0.10200
H3904       H  0.84358056  0.74511307  0.99956623     0.10200
H3905       H  0.86496741  0.79441422  0.03368254     0.09900
H3906       H  0.88815820  0.79086566  0.04985518     0.11000
H3907       H  0.83139950  0.76326531  0.98961253     0.11100
H3908       H  0.83737726  0.78854955  0.02968970     0.13000
H3909       H  0.81241435  0.79257935  0.03494203     0.09500
H3910       H  0.78952654  0.79643487  0.01810326     0.11600
H3911       H  0.79585375  0.77757542  0.95059846     0.08200
H3912       H  0.81862009  0.77395338  0.96717898     0.11000
C3913       C  0.11523012  0.88573220  0.96384694    -0.03600
C3914       C  0.11350647  0.86942301  0.96605323    -0.06200
C3915       C  0.09789432  0.85530818  0.97295221    -0.21300
C3916       C  0.08373317  0.85719052  0.97816855     0.24400
C3917       C  0.08533353  0.87342764  0.97543782    -0.18900
C3918       C  0.10088424  0.88750397  0.96837938    -0.08800
C3919       C  0.06751275  0.84200103  0.98629637    -0.19100
C3920       C  0.05625354  0.84332137  0.00056262    -0.23900
C3921       C  0.04046171  0.82845164  0.01029288     0.26500
C3922       C  0.03351398  0.83083455  0.03124770    -0.20700
C3923       C  0.01846872  0.81752007  0.04089323    -0.10300
C3924       C  0.00971126  0.80154083  0.02951428    -0.10900
C3925       C  0.01654295  0.79907908  0.00842538    -0.03800
C3926       C  0.03186331  0.81237305  0.99896677    -0.18900
H3927       H  0.12421290  0.86753807  0.96239446     0.10200
H3928       H  0.09696044  0.84291742  0.97461836     0.10200
H3929       H  0.07457134  0.87531178  0.97848385     0.09900
H3930       H  0.10168110  0.89982766  0.96664582     0.11000
H3931       H  0.06546764  0.82942359  0.98181649     0.11100
H3932       H  0.05923000  0.85589277  0.00678885     0.13000
H3933       H  0.03977261  0.84309199  0.04024602     0.09500
H3934       H  0.01344206  0.81988047  0.05702432     0.11600
H3935       H  0.01005067  0.78688607  0.99929751     0.08200
H3936       H  0.03664976  0.81014570  0.98253629     0.11000
C3937       C  0.77358866  0.62955083  0.21395203    -0.03600
C3938       C  0.77665607  0.62339807  0.19268417    -0.06200
C3939       C  0.79124181  0.63364917  0.17914751    -0.21300
C3940       C  0.80290179  0.65045268  0.18617587     0.24400
C3941       C  0.80021000  0.65645639  0.20796489    -0.18900
C3942       C  0.78572209  0.64602173  0.22181402    -0.08800
C3943       C  0.81753664  0.66118940  0.17012308    -0.19100
C3944       C  0.82490680  0.67834876  0.16868402    -0.23900
C3945       C  0.83887725  0.68921715  0.15169214     0.26500
C3946       C  0.84875077  0.70679532  0.15639852    -0.20700
C3947       C  0.86239262  0.71750463  0.14164778    -0.10300
C3948       C  0.86643499  0.71096676  0.12156013    -0.10900
C3949       C  0.85606735  0.69354964  0.11602318    -0.03800
C3950       C  0.84242461  0.68274533  0.13095790    -0.18900
H3951       H  0.76762325  0.61066865  0.18635350     0.10200
H3952       H  0.79312673  0.62861282  0.16266994     0.10200
H3953       H  0.80921422  0.66915589  0.21434625     0.09900
H3954       H  0.78368992  0.65103831  0.23820292     0.11000
H3955       H  0.82165594  0.65449557  0.15827643     0.11100
H3956       H  0.82059172  0.68488578  0.18055177     0.13000
H3957       H  0.84619690  0.71222022  0.17195697     0.09500
H3958       H  0.87009882  0.73090222  0.14634046     0.11600
H3959       H  0.85893138  0.68814628  0.10072823     0.08200
H3960       H  0.83480354  0.66940224  0.12614781     0.11000
C3961       C  0.99798908  0.73718497  0.10113827    -0.03600
C3962       C  0.01527860  0.74991696  0.09833063    -0.06200
C3963       C  0.02804477  0.74539936  0.09636661    -0.21300
C3964       C  0.02366775  0.72811223  0.09679565     0.24400
C3965       C  0.00660139  0.71558981  0.10126043    -0.18900
C3966       C  0.99398121  0.72005003  0.10345442    -0.08800
C3967       C  0.03667825  0.72292186  0.09229817    -0.19100
C3968       C  0.03262844  0.70900199  0.07890356    -0.23900
C3969       C  0.04290222  0.70034205  0.07619020     0.26500
C3970       C  0.03554333  0.68514705  0.06290294    -0.20700
C3971       C  0.04285134  0.67474991  0.06262394    -0.10300
C3972       C  0.05788615  0.67930564  0.07542165    -0.10900
C3973       C  0.06606813  0.69510465  0.08737023    -0.03800
C3974       C  0.05859187  0.70554302  0.08787584    -0.18900
H3975       H  0.01883225  0.76323453  0.09653630     0.10200
H3976       H  0.04118339  0.75530852  0.09338028     0.10200
H3977       H  0.00291655  0.70221043  0.10261189     0.09900
H3978       H  0.98089820  0.70987395  0.10601488     0.11000
H3979       H  0.04927113  0.73041942  0.10014970     0.11100
H3980       H  0.02019323  0.70278752  0.07020432     0.13000
H3981       H  0.02353008  0.68077960  0.05364081     0.09500
H3982       H  0.03623539  0.66263246  0.05329726     0.11600
H3983       H  0.07755370  0.69880182  0.09763399     0.08200
H3984       H  0.06473390  0.71716644  0.09826536     0.11000
C3985       C  0.86646559  0.56377278  0.66179066    -0.03600
C3986       C  0.87857937  0.55877605  0.65703429    -0.06200
C3987       C  0.88117229  0.55509957  0.63379152    -0.21300
C3988       C  0.87175038  0.55630914  0.61473324     0.24400
C3989       C  0.85922839  0.56079754  0.61957391    -0.18900
C3990       C  0.85667674  0.56454288  0.64282471    -0.08800
C3991       C  0.87517967  0.55231737  0.59036399    -0.19100
C3992       C  0.87082633  0.55721378  0.57003371    -0.23900
C3993       C  0.87473325  0.55352828  0.54560511     0.26500
C3994       C  0.87038889  0.56012932  0.52578782    -0.20700
C3995       C  0.87421831  0.55740000  0.50258287    -0.10300
C3996       C  0.88258096  0.54804257  0.49864949    -0.10900
C3997       C  0.88656881  0.54113234  0.51842830    -0.03800
C3998       C  0.88268613  0.54376208  0.54148540    -0.18900
H3999       H  0.88632261  0.55803989  0.67119213     0.10200
H4000       H  0.89078198  0.55150644  0.63064632     0.10200
H4001       H  0.85124835  0.56129398  0.60562209     0.09900
H4002       H  0.84703124  0.56809295  0.64592045     0.11000
H4003       H  0.88221813  0.54556163  0.58960334     0.11100
H4004       H  0.86452998  0.56473128  0.57113009     0.13000
H4005       H  0.86414384  0.56758922  0.52826345     0.09500
H4006       H  0.87088940  0.56285755  0.48779221     0.11600
H4007       H  0.89284680  0.53368620  0.51617928     0.08200
H4008       H  0.88610170  0.53805507  0.55574598     0.11000
C4009       C  0.68267290  0.56715295  0.85282014    -0.03600
C4010       C  0.69758307  0.57839250  0.86542005    -0.06200
C4011       C  0.71369228  0.58225134  0.85708817    -0.21300
C4012       C  0.71537823  0.57475501  0.83618341     0.24400
C4013       C  0.70051256  0.56400522  0.82296699    -0.18900
C4014       C  0.68432258  0.56032807  0.83116984    -0.08800
C4015       C  0.73288857  0.57863463  0.82907215    -0.19100
C4016       C  0.73611902  0.56833969  0.81529241    -0.23900
C4017       C  0.75366642  0.57146302  0.80953444     0.26500
C4018       C  0.75505781  0.55878469  0.79694003    -0.20700
C4019       C  0.77107062  0.56087903  0.79118851    -0.10300
C4020       C  0.78624723  0.57579492  0.79778540    -0.10900
C4021       C  0.78493691  0.58857658  0.81025109    -0.03800
C4022       C  0.76889679  0.58646519  0.81608233    -0.18900
H4023       H  0.69677865  0.58405989  0.88198290     0.10200
H4024       H  0.72488782  0.59078538  0.86744349     0.10200
H4025       H  0.70129347  0.55840872  0.80636144     0.09900
H4026       H  0.67306682  0.55169630  0.82100566     0.11000
H4027       H  0.74341799  0.58991523  0.83702394     0.11100
H4028       H  0.72538150  0.55658203  0.80858343     0.13000
H4029       H  0.74366707  0.54713260  0.79150169     0.09500
H4030       H  0.77152721  0.55081910  0.78134071     0.11600
H4031       H  0.79633676  0.60025878  0.81555506     0.08200
H4032       H  0.76870762  0.59675795  0.82553164     0.11000
C4033       C  0.81104511  0.70622012  0.62003094    -0.03600
C4034       C  0.81464464  0.69500660  0.60735234    -0.06200
C4035       C  0.81720090  0.68289192  0.61938293    -0.21300
C4036       C  0.81625030  0.68168789  0.64432888     0.24400
C4037       C  0.81250569  0.69283873  0.65699198    -0.18900
C4038       C  0.81002963  0.70497775  0.64499694    -0.08800
C4039       C  0.81871818  0.66830868  0.65621234    -0.19100
C4040       C  0.82217314  0.66831789  0.67962247    -0.23900
C4041       C  0.82504842  0.65518337  0.69157590     0.26500
C4042       C  0.82629223  0.65539853  0.71654400    -0.20700
C4043       C  0.82979775  0.64388832  0.72857294    -0.10300
C4044       C  0.83215832  0.63185533  0.71586768    -0.10900
C4045       C  0.83059975  0.63144479  0.69090896    -0.03800
C4046       C  0.82717561  0.64294366  0.67892503    -0.18900
H4047       H  0.81548741  0.69557012  0.58813564     0.10200
H4048       H  0.81995667  0.67441668  0.60912242     0.10200
H4049       H  0.81108285  0.69210337  0.67609345     0.09900
H4050       H  0.80706336  0.71325034  0.65537560     0.11000
H4051       H  0.81782785  0.65825401  0.64480409     0.11100
H4052       H  0.82326058  0.67856840  0.69082345     0.13000
H4053       H  0.82473824  0.66466573  0.72681793     0.09500
H4054       H  0.83092228  0.64460544  0.74776134     0.11600
H4055       H  0.83240122  0.62242845  0.68040247     0.08200
H4056       H  0.82666798  0.64229261  0.65976201     0.11000
C4057       C  0.87229097  0.62777036  0.85792889    -0.03600
C4058       C  0.88223568  0.62622130  0.87597359    -0.06200
C4059       C  0.88888467  0.63809403  0.89453779    -0.21300
C4060       C  0.88562002  0.65170363  0.89579629     0.24400
C4061       C  0.87559705  0.65328408  0.87788998    -0.18900
C4062       C  0.86901606  0.64145072  0.85918217    -0.08800
C4063       C  0.89353999  0.66434625  0.91542351    -0.19100
C4064       C  0.88689418  0.67368663  0.92401477    -0.23900
C4065       C  0.89472840  0.68606151  0.94397674     0.26500
C4066       C  0.88425348  0.68999749  0.95782116    -0.20700
C4067       C  0.89112483  0.70168841  0.97656102    -0.10300
C4068       C  0.90873659  0.70996090  0.98167427    -0.10900
C4069       C  0.91929101  0.70620330  0.96763666    -0.03800
C4070       C  0.91237749  0.69437445  0.94900809    -0.18900
H4071       H  0.88515608  0.61597125  0.87559237     0.10200
H4072       H  0.89666058  0.63664734  0.90799389     0.10200
H4073       H  0.87320302  0.66388279  0.87788512     0.09900
H4074       H  0.86160322  0.64321212  0.84548670     0.11000
H4075       H  0.90475936  0.66524039  0.92390404     0.11100
H4076       H  0.87476474  0.67157480  0.91707863     0.13000
H4077       H  0.87065649  0.68389249  0.95424383     0.09500
H4078       H  0.88262516  0.70432025  0.98696399     0.11600
H4079       H  0.93289061  0.71230599  0.97115734     0.08200
H4080       H  0.92096040  0.69203974  0.93836497     0.11000
C4081       C  0.01076202  0.79806837  0.33428569    -0.03600
C4082       C  0.02283662  0.80499437  0.31569516    -0.06200
C4083       C  0.01768778  0.80385957  0.29211964    -0.21300
C4084       C  0.00033959  0.79560953  0.28621786     0.24400
C4085       C  0.98809653  0.78901430  0.30463691    -0.18900
C4086       C  0.99328422  0.79028038  0.32851172    -0.08800
C4087       C  0.99576771  0.79443642  0.26064056    -0.19100
C4088       C  0.98159332  0.78122108  0.25136486    -0.23900
C4089       C  0.97717355  0.77958974  0.22562800     0.26500
C4090       C  0.96001132  0.76910287  0.21930989    -0.20700
C4091       C  0.95501264  0.76689065  0.19555598    -0.10300
C4092       C  0.96710103  0.77485190  0.17720541    -0.10900
C4093       C  0.98439656  0.78530119  0.18339798    -0.03800
C4094       C  0.98941016  0.78767361  0.20740841    -0.18900
H4095       H  0.03644084  0.81124974  0.31922878     0.10200
H4096       H  0.02735475  0.80916804  0.27833386     0.10200
H4097       H  0.97457699  0.78303374  0.30067490     0.09900
H4098       H  0.98366817  0.78506239  0.34234475     0.11000
H4099       H  0.00489334  0.80445074  0.24902298     0.11100
H4100       H  0.97261123  0.77120869  0.26315928     0.13000
H4101       H  0.95035276  0.76259052  0.23286481     0.09500
H4102       H  0.94157066  0.75856490  0.19163069     0.11600
H4103       H  0.99403174  0.79148104  0.16974025     0.08200
H4104       H  0.00287244  0.79548068  0.21149269     0.11000
C4105       C  0.10418141  0.87664104  0.47072730    -0.03600
C4106       C  0.11857613  0.87716162  0.48125096    -0.06200
C4107       C  0.13245528  0.89268568  0.48885619    -0.21300
C4108       C  0.13245706  0.90811660  0.48584124     0.24400
C4109       C  0.11811262  0.90767195  0.47529252    -0.18900
C4110       C  0.10413890  0.89211100  0.46786070    -0.08800
C4111       C  0.14710981  0.92416626  0.49535290    -0.19100
C4112       C  0.15173939  0.93998282  0.48728084    -0.23900
C4113       C  0.16594391  0.95577474  0.49816413     0.26500
C4114       C  0.17521613  0.97060299  0.48431317    -0.20700
C4115       C  0.18828912  0.98574116  0.49448638    -0.10300
C4116       C  0.19212374  0.98641716  0.51886848    -0.10900
C4117       C  0.18277300  0.97153237  0.53263442    -0.03800
C4118       C  0.16985566  0.95646249  0.52247336    -0.18900
H4119       H  0.11907129  0.86553781  0.48388002     0.10200
H4120       H  0.14325650  0.89263673  0.49716833     0.10200
H4121       H  0.11742846  0.91922910  0.47330187     0.09900
H4122       H  0.09325632  0.89221179  0.45995200     0.11000
H4123       H  0.15471613  0.92277558  0.50919822     0.11100
H4124       H  0.14532783  0.94144973  0.47188120     0.13000
H4125       H  0.17231966  0.97047075  0.46559092     0.09500
H4126       H  0.19509368  0.99699566  0.48339818     0.11600
H4127       H  0.18522607  0.97155413  0.55149038     0.08200
H4128       H  0.16263491  0.94551092  0.53391870     0.11000
C4129       C  0.96989054  0.78190412  0.48259677    -0.03600
C4130       C  0.96591269  0.77773042  0.50673583    -0.06200
C4131       C  0.94969879  0.77340432  0.51558028    -0.21300
C4132       C  0.93722382  0.77343579  0.50062894     0.24400
C4133       C  0.94122740  0.77759888  0.47650154    -0.18900
C4134       C  0.95731341  0.78180838  0.46766273    -0.08800
C4135       C  0.92008081  0.76880067  0.51045288    -0.19100
C4136       C  0.91042289  0.77495376  0.50127814    -0.23900
C4137       C  0.89369326  0.77140805  0.51123309     0.26500
C4138       C  0.88884163  0.78380827  0.50820266    -0.20700
C4139       C  0.87323350  0.78114894  0.51697827    -0.10300
C4140       C  0.86181971  0.76579378  0.52854923    -0.10900
C4141       C  0.86644136  0.75312413  0.53111517    -0.03800
C4142       C  0.88229877  0.75594871  0.52270550    -0.18900
H4143       H  0.97524548  0.77762784  0.51873138     0.10200
H4144       H  0.94693239  0.77015310  0.53421217     0.10200
H4145       H  0.93186469  0.77730605  0.46420893     0.09900
H4146       H  0.95983914  0.78493887  0.44896620     0.11000
H4147       H  0.91581724  0.76100377  0.52643240     0.11100
H4148       H  0.91552675  0.78409931  0.48676652     0.13000
H4149       H  0.89728161  0.79573931  0.49921131     0.09500
H4150       H  0.87002824  0.79110681  0.51449151     0.11600
H4151       H  0.85790549  0.74114185  0.53990565     0.08200
H4152       H  0.88547365  0.74595130  0.52483414     0.11000
C4153       C  0.11199197  0.82994397  0.38765234    -0.03600
C4154       C  0.12506298  0.82892169  0.39966701    -0.06200
C4155       C  0.13953174  0.83137849  0.38738504    -0.21300
C4156       C  0.14120018  0.83483100  0.36289264     0.24400
C4157       C  0.12839067  0.83646413  0.35101499    -0.18900
C4158       C  0.11391679  0.83396733  0.36325495    -0.08800
C4159       C  0.15682491  0.83737712  0.35070004    -0.19100
C4160       C  0.15802107  0.83619522  0.32697340    -0.23900
C4161       C  0.17414992  0.84016544  0.31470134     0.26500
C4162       C  0.17344260  0.83522842  0.29084926    -0.20700
C4163       C  0.18845868  0.83965987  0.27825859    -0.10300
C4164       C  0.20447492  0.84902934  0.28939085    -0.10900
C4165       C  0.20515343  0.85384707  0.31328526    -0.03800
C4166       C  0.19023559  0.84962347  0.32572931    -0.18900
H4167       H  0.12395041  0.82582325  0.41842443     0.10200
H4168       H  0.14935746  0.83032218  0.39700194     0.10200
H4169       H  0.12948727  0.83981468  0.33238346     0.09900
H4170       H  0.10414629  0.83502319  0.35347786     0.11000
H4171       H  0.16754614  0.83989743  0.36202617     0.11100
H4172       H  0.14676711  0.83205762  0.31593275     0.13000
H4173       H  0.16123809  0.82803104  0.28186962     0.09500
H4174       H  0.18753135  0.83568222  0.25989814     0.11600
H4175       H  0.21730325  0.86124291  0.32232360     0.08200
H4176       H  0.19158310  0.85428640  0.34372806     0.11000
C4177       C  0.91808101  0.61242998  0.41782357    -0.03600
C4178       C  0.90760305  0.61760223  0.40633633    -0.06200
C4179       C  0.91345856  0.63506189  0.40273849    -0.21300
C4180       C  0.92955824  0.64751389  0.41129829     0.24400
C4181       C  0.93941803  0.64233800  0.42437651    -0.18900
C4182       C  0.93378362  0.62498375  0.42747865    -0.08800
C4183       C  0.93683627  0.66574537  0.40476144    -0.19100
C4184       C  0.94452592  0.67816541  0.42105235    -0.23900
C4185       C  0.95439707  0.69656661  0.41499644     0.26500
C4186       C  0.95346490  0.70837809  0.43015456    -0.20700
C4187       C  0.96512039  0.72587166  0.42792544    -0.10300
C4188       C  0.97828026  0.73173583  0.41105166    -0.10900
C4189       C  0.97876728  0.72004314  0.39508519    -0.03800
C4190       C  0.96670634  0.70256703  0.39677663    -0.18900
H4191       H  0.89554368  0.60819205  0.39853243     0.10200
H4192       H  0.90567676  0.63884352  0.39264191     0.10200
H4193       H  0.95196954  0.65170006  0.43091415     0.09900
H4194       H  0.94216405  0.62135266  0.43629398     0.11000
H4195       H  0.93619387  0.66898848  0.38632351     0.11100
H4196       H  0.94381517  0.67469777  0.43970492     0.13000
H4197       H  0.94421091  0.70396921  0.44447619     0.09500
H4198       H  0.96478091  0.73464178  0.44074788     0.11600
H4199       H  0.98903347  0.72432206  0.38222959     0.08200
H4200       H  0.96787438  0.69365300  0.38515533     0.11000
C4201       C  0.12123178  0.68710745  0.83863937    -0.03600
C4202       C  0.11147493  0.66946223  0.84318537    -0.06200
C4203       C  0.10988219  0.66322078  0.86640163    -0.21300
C4204       C  0.11791319  0.67445638  0.88553883     0.24400
C4205       C  0.12845888  0.69199755  0.88077758    -0.18900
C4206       C  0.13002230  0.69823058  0.85765458    -0.08800
C4207       C  0.11453177  0.66743248  0.91012633    -0.19100
C4208       C  0.11627198  0.67685131  0.92967772    -0.23900
C4209       C  0.11077339  0.66930869  0.95378074     0.26500
C4210       C  0.11825359  0.67960569  0.97394202    -0.20700
C4211       C  0.11288203  0.67297278  0.99688206    -0.10300
C4212       C  0.09983260  0.65590970  0.00003153    -0.10900
C4213       C  0.09215618  0.64575988  0.97977153    -0.03800
C4214       C  0.09748508  0.65236606  0.95698261    -0.18900
H4215       H  0.10470681  0.66052211  0.82894049     0.10200
H4216       H  0.10188631  0.64960591  0.86952253     0.10200
H4217       H  0.13549758  0.70102745  0.89476373     0.09900
H4218       H  0.13799614  0.71187379  0.85477279     0.11000
H4219       H  0.10948286  0.65376302  0.91192779     0.11100
H4220       H  0.12146797  0.69054522  0.92818164     0.13000
H4221       H  0.12835709  0.69278750  0.97192308     0.09500
H4222       H  0.11905287  0.68111417  0.01209611     0.11600
H4223       H  0.08184768  0.63264351  0.98146925     0.08200
H4224       H  0.09085135  0.64423061  0.94197663     0.11000
C4225       C  0.30019387  0.87349793  0.64745474    -0.03600
C4226       C  0.28557372  0.86565338  0.63293153    -0.06200
C4227       C  0.27020373  0.85231035  0.64163152    -0.21300
C4228       C  0.26904288  0.84629700  0.66493978     0.24400
C4229       C  0.28346927  0.85443427  0.67984914    -0.18900
C4230       C  0.29889954  0.86795736  0.67117304    -0.08800
C4231       C  0.25236794  0.83181166  0.67279510    -0.19100
C4232       C  0.25027008  0.82104414  0.69077332    -0.23900
C4233       C  0.23316871  0.80623153  0.69675659     0.26500
C4234       C  0.23194120  0.79162357  0.70755702    -0.20700
C4235       C  0.21589791  0.77733191  0.71248667    -0.10300
C4236       C  0.20076707  0.77745669  0.70685281    -0.10900
C4237       C  0.20209238  0.79224669  0.69653137    -0.03800
C4238       C  0.21802824  0.80646618  0.69176294    -0.18900
H4239       H  0.28603184  0.86965721  0.61465753     0.10200
H4240       H  0.25921960  0.84641762  0.62988038     0.10200
H4241       H  0.28289117  0.85046948  0.69814536     0.09900
H4242       H  0.30990654  0.87379246  0.68286970     0.11000
H4243       H  0.24139947  0.82924889  0.66194140     0.11100
H4244       H  0.26134408  0.82240364  0.70029555     0.13000
H4245       H  0.24340175  0.79118635  0.71189874     0.09500
H4246       H  0.21535920  0.76624463  0.72078071     0.11600
H4247       H  0.19077441  0.79296405  0.69228334     0.08200
H4248       H  0.21835296  0.81770067  0.68444314     0.11000
C4249       C  0.93290924  0.59907621  0.73919174    -0.03600
C4250       C  0.94596370  0.61532055  0.73197557    -0.06200
C4251       C  0.96310316  0.62000021  0.73448113    -0.21300
C4252       C  0.96772336  0.60862409  0.74448663     0.24400
C4253       C  0.95475180  0.59188408  0.74996145    -0.18900
C4254       C  0.93743032  0.58713794  0.74741389    -0.08800
C4255       C  0.98600819  0.61452339  0.74990684    -0.19100
C4256       C  0.99636531  0.63051063  0.75809864    -0.23900
C4257       C  0.01508669  0.63867963  0.76233394     0.26500
C4258       C  0.02272340  0.65345078  0.77648054    -0.20700
C4259       C  0.04043972  0.66386604  0.77733339    -0.10300
C4260       C  0.05103427  0.65978059  0.76407403    -0.10900
C4261       C  0.04358655  0.64430192  0.75131377    -0.03800
C4262       C  0.02567282  0.63380139  0.75036719    -0.18900
H4263       H  0.94293436  0.62473907  0.72526434     0.10200
H4264       H  0.97278089  0.63276456  0.72914446     0.10200
H4265       H  0.95799575  0.58279692  0.75736350     0.09900
H4266       H  0.92765036  0.57454052  0.75321776     0.11000
H4267       H  0.99070520  0.60563508  0.74801374     0.11100
H4268       H  0.99071932  0.63841087  0.76196520     0.13000
H4269       H  0.01490681  0.65750512  0.78589777     0.09500
H4270       H  0.04585504  0.67574112  0.78723737     0.11600
H4271       H  0.05149595  0.64104721  0.74058466     0.08200
H4272       H  0.02020347  0.62262686  0.73901538     0.11000
C4273       C  0.07302981  0.79635700  0.53148063    -0.03600
C4274       C  0.09054223  0.80657292  0.53687238    -0.06200
C4275       C  0.09810088  0.80168069  0.55464468    -0.21300
C4276       C  0.08848922  0.78625458  0.56707556     0.24400
C4277       C  0.07085736  0.77624264  0.56222183    -0.18900
C4278       C  0.06319641  0.78131604  0.54472320    -0.08800
C4279       C  0.09721558  0.78124392  0.58525868    -0.19100
C4280       C  0.09251974  0.76482818  0.59021229    -0.23900
C4281       C  0.10135130  0.75964903  0.60808963     0.26500
C4282       C  0.09950059  0.74326876  0.60655689    -0.20700
C4283       C  0.10660066  0.73746819  0.62386289    -0.10300
C4284       C  0.11566285  0.74787949  0.64332616    -0.10900
C4285       C  0.11784110  0.76444100  0.64455459    -0.03800
C4286       C  0.11074992  0.77023148  0.62725086    -0.18900
H4287       H  0.09848307  0.81828033  0.52710217     0.10200
H4288       H  0.11164029  0.80975595  0.55823756     0.10200
H4289       H  0.06295980  0.76451835  0.57194308     0.09900
H4290       H  0.04969957  0.77315410  0.54097774     0.11000
H4291       H  0.10857367  0.79149952  0.59359690     0.11100
H4292       H  0.08214368  0.75468836  0.58009670     0.13000
H4293       H  0.09230770  0.73480528  0.59205627     0.09500
H4294       H  0.10458698  0.72463719  0.62229438     0.11600
H4295       H  0.12455164  0.77279606  0.65936472     0.08200
H4296       H  0.11214769  0.78275840  0.62951276     0.11000
C4297       C  0.15449436  0.78998981  0.78419389    -0.03600
C4298       C  0.15840141  0.80476210  0.77101457    -0.06200
C4299       C  0.16165510  0.81985768  0.78262778    -0.21300
C4300       C  0.16090276  0.82044301  0.80756883     0.24400
C4301       C  0.15771517  0.80587511  0.82067832    -0.18900
C4302       C  0.15446482  0.79088639  0.80916609    -0.08800
C4303       C  0.16364211  0.83638243  0.81940573    -0.19100
C4304       C  0.15794588  0.83654387  0.84156158    -0.23900
C4305       C  0.16066685  0.85219063  0.85408499     0.26500
C4306       C  0.15942795  0.85184086  0.87901490    -0.20700
C4307       C  0.16200677  0.86627583  0.89164712    -0.10300
C4308       C  0.16575008  0.88136207  0.87954075    -0.10900
C4309       C  0.16645536  0.88151758  0.85450953    -0.03800
C4310       C  0.16394998  0.86712824  0.84192375    -0.18900
H4311       H  0.15867520  0.80458775  0.75177112     0.10200
H4312       H  0.16439487  0.83099168  0.77208080     0.10200
H4313       H  0.15780527  0.80589383  0.83988951     0.09900
H4314       H  0.15168852  0.77987513  0.82000808     0.11000
H4315       H  0.17036261  0.84818910  0.80934118     0.11100
H4316       H  0.15105741  0.82468532  0.85143853     0.13000
H4317       H  0.15668441  0.84040401  0.88880068     0.09500
H4318       H  0.16122720  0.86565142  0.91086909     0.11600
H4319       H  0.16908720  0.89283841  0.84451819     0.08200
H4320       H  0.16439547  0.86776354  0.82272368     0.11000
C4321       C  0.30153639  0.44696844  0.13743234    -0.03600
C4322       C  0.28734954  0.44186344  0.12235622    -0.06200
C4323       C  0.27146268  0.43810606  0.13144081    -0.21300
C4324       C  0.26921218  0.43951619  0.15582182     0.24400
C4325       C  0.28329672  0.44452937  0.17114714    -0.18900
C4326       C  0.29928686  0.44816279  0.16203252    -0.08800
C4327       C  0.25181472  0.43513210  0.16420845    -0.19100
C4328       C  0.24868416  0.44159494  0.18392899    -0.23900
C4329       C  0.23119471  0.43821159  0.19025555     0.26500
C4330       C  0.22949295  0.45059037  0.20311280    -0.20700
C4331       C  0.21329438  0.44814740  0.20860559    -0.10300
C4332       C  0.19834540  0.43308523  0.20172156    -0.10900
C4333       C  0.20004501  0.42046495  0.18942222    -0.03800
C4334       C  0.21625029  0.42299276  0.18372243    -0.18900
H4335       H  0.28846401  0.44074198  0.10336275     0.10200
H4336       H  0.26086264  0.43421905  0.11922678     0.10200
H4337       H  0.28195380  0.44540796  0.19013038     0.09900
H4338       H  0.30988907  0.45200573  0.17421411     0.11000
H4339       H  0.24122380  0.42727620  0.15239813     0.11100
H4340       H  0.25935597  0.45075128  0.19467769     0.13000
H4341       H  0.24075171  0.46234887  0.20857893     0.09500
H4342       H  0.21249951  0.45805451  0.21836704     0.11600
H4343       H  0.18883226  0.40864615  0.18402803     0.08200
H4344       H  0.21700212  0.41290949  0.17443233     0.11000
C4345       C  0.09087880  0.56109577  0.12888248    -0.03600
C4346       C  0.10730930  0.56303609  0.12755808    -0.06200
C4347       C  0.10992879  0.54944942  0.13342760    -0.21300
C4348       C  0.09624879  0.53360613  0.14082296     0.24400
C4349       C  0.07975604  0.53159498  0.14181653    -0.18900
C4350       C  0.07714647  0.54517388  0.13602109    -0.08800
C4351       C  0.09966295  0.51945635  0.14663477    -0.19100
C4352       C  0.08877725  0.50535735  0.15905927    -0.23900
C4353       C  0.09217755  0.49131783  0.16541740     0.26500
C4354       C  0.08291651  0.48045493  0.18431290    -0.20700
C4355       C  0.08605113  0.46753685  0.19175080    -0.10300
C4356       C  0.09836387  0.46496177  0.18023530    -0.10900
C4357       C  0.10706306  0.47519773  0.16052706    -0.03800
C4358       C  0.10405325  0.48831934  0.15320169    -0.18900
H4359       H  0.11817717  0.57505075  0.12194241     0.10200
H4360       H  0.12273717  0.55135371  0.13224211     0.10200
H4361       H  0.06869386  0.51952522  0.14659954     0.09900
H4362       H  0.06427564  0.54311230  0.13700166     0.11000
H4363       H  0.11194266  0.52115139  0.14124443     0.11100
H4364       H  0.07716413  0.50432666  0.16621472     0.13000
H4365       H  0.07350980  0.48225297  0.19381400     0.09500
H4366       H  0.07905223  0.45973175  0.20688575     0.11600
H4367       H  0.11665296  0.47349672  0.15139205     0.08200
H4368       H  0.11106901  0.49603496  0.13806918     0.11000
C4369       C  0.14760328  0.37390448  0.28163295    -0.03600
C4370       C  0.14701103  0.35986641  0.26999636    -0.06200
C4371       C  0.14870596  0.34755496  0.28296128    -0.21300
C4372       C  0.15097940  0.34900013  0.30775359     0.24400
C4373       C  0.15267552  0.36362800  0.31911722    -0.18900
C4374       C  0.15095341  0.37588377  0.30621363    -0.08800
C4375       C  0.15167174  0.33511208  0.32103893    -0.19100
C4376       C  0.14827130  0.33213012  0.34450232    -0.23900
C4377       C  0.14938236  0.31840259  0.35757064     0.26500
C4378       C  0.15339855  0.32049544  0.38192963    -0.20700
C4379       C  0.15600275  0.30850138  0.39427509    -0.10300
C4380       C  0.15447046  0.29408211  0.38248226    -0.10900
C4381       C  0.14925662  0.29143740  0.35850217    -0.03800
C4382       C  0.14670608  0.30340907  0.34621449    -0.18900
H4383       H  0.14460922  0.35804871  0.25105566     0.10200
H4384       H  0.14770955  0.33658428  0.27368840     0.10200
H4385       H  0.15529323  0.36571141  0.33795133     0.09900
H4386       H  0.15193767  0.38679221  0.31564862     0.11000
H4387       H  0.15489231  0.32691965  0.31086011     0.11100
H4388       H  0.14513229  0.34030508  0.35485010     0.13000
H4389       H  0.15521465  0.33179687  0.39119789     0.09500
H4390       H  0.15991957  0.31090564  0.41273437     0.11600
H4391       H  0.14762264  0.28031863  0.34892010     0.08200
H4392       H  0.14280418  0.30091971  0.32777626     0.11000
C4393       C  0.10003537  0.24303980  0.96756623    -0.03600
C4394       C  0.09604128  0.23024712  0.98462054    -0.06200
C4395       C  0.10870926  0.22727837  0.99361949    -0.21300
C4396       C  0.12560407  0.23669743  0.98536551     0.24400
C4397       C  0.12975133  0.24972723  0.96845448    -0.18900
C4398       C  0.11705568  0.25295374  0.95976385    -0.08800
C4399       C  0.13840017  0.23273996  0.99560641    -0.19100
C4400       C  0.15296099  0.23585096  0.98467050    -0.23900
C4401       C  0.16516548  0.23118201  0.99546359     0.26500
C4402       C  0.17650123  0.22899720  0.98077118    -0.20700
C4403       C  0.18816882  0.22471405  0.99051478    -0.10300
C4404       C  0.18883629  0.22268071  0.01524326    -0.10900
C4405       C  0.17753102  0.22495223  0.02987434    -0.03800
C4406       C  0.16596450  0.22924949  0.02018725    -0.18900
H4407       H  0.08306477  0.22256078  0.99110650     0.10200
H4408       H  0.10521398  0.21735494  0.00687340     0.10200
H4409       H  0.14274057  0.25754344  0.96215190     0.09900
H4410       H  0.12043985  0.26291235  0.94660468     0.11000
H4411       H  0.13495727  0.22589150  0.01238273     0.11100
H4412       H  0.15566088  0.24120552  0.96685519     0.13000
H4413       H  0.17629137  0.23055561  0.96169425     0.09500
H4414       H  0.19676009  0.22317043  0.97870923     0.11600
H4415       H  0.17769676  0.22358981  0.04898973     0.08200
H4416       H  0.15797653  0.23140707  0.03233062     0.11000
C4417       C  0.96885737  0.21018010  0.97475750    -0.03600
C4418       C  0.96698454  0.21078524  0.99954456    -0.06200
C4419       C  0.95182946  0.19878924  0.01089387    -0.21300
C4420       C  0.93833879  0.18576567  0.99781287     0.24400
C4421       C  0.93996042  0.18550666  0.97298289    -0.18900
C4422       C  0.95499590  0.19755898  0.96161148    -0.08800
C4423       C  0.92259576  0.17271308  0.01024510    -0.19100
C4424       C  0.91368108  0.15629995  0.00285894    -0.23900
C4425       C  0.89772534  0.14284043  0.01438302     0.26500
C4426       C  0.89345135  0.12563654  0.01238686    -0.20700
C4427       C  0.87807510  0.11247705  0.02174098    -0.10300
C4428       C  0.86639059  0.11620175  0.03281130    -0.10900
C4429       C  0.87064723  0.13344579  0.03475841    -0.03800
C4430       C  0.88618284  0.14663050  0.02580417    -0.18900
H4431       H  0.97732974  0.22034717  0.01026081     0.10200
H4432       H  0.95081582  0.19940561  0.03001547     0.10200
H4433       H  0.92957747  0.17599950  0.96227393     0.09900
H4434       H  0.95583813  0.19675968  0.94249755     0.11000
H4435       H  0.91881697  0.17649506  0.02642088     0.11100
H4436       H  0.91862274  0.15231125  0.98810810     0.13000
H4437       H  0.90203056  0.12235624  0.00343780     0.09500
H4438       H  0.87512079  0.09934864  0.01972544     0.11600
H4439       H  0.86190372  0.13675304  0.04313618     0.08200
H4440       H  0.88885406  0.15969672  0.02716802     0.11000
C4441       C  0.12323091  0.38386291  0.13338400    -0.03600
C4442       C  0.13026509  0.37303368  0.13244449    -0.06200
C4443       C  0.12581676  0.36100797  0.11412945    -0.21300
C4444       C  0.11395780  0.35923960  0.09662570     0.24400
C4445       C  0.10752520  0.37055396  0.09684688    -0.18900
C4446       C  0.11217685  0.38277834  0.11493410    -0.08800
C4447       C  0.10841370  0.34547205  0.07843515    -0.19100
C4448       C  0.09206762  0.33640031  0.07078925    -0.23900
C4449       C  0.08577808  0.32224893  0.05301165     0.26500
C4450       C  0.06828977  0.30988869  0.05261790    -0.20700
C4451       C  0.06162261  0.29704094  0.03524442    -0.10300
C4452       C  0.07226568  0.29633953  0.01754345    -0.10900
C4453       C  0.08983617  0.30860227  0.01815053    -0.03800
C4454       C  0.09651884  0.32137790  0.03565424    -0.18900
H4455       H  0.13886343  0.37350747  0.14624222     0.10200
H4456       H  0.13113224  0.35259671  0.11417231     0.10200
H4457       H  0.09875076  0.36983848  0.08315971     0.09900
H4458       H  0.10655472  0.39091448  0.11495486     0.11000
H4459       H  0.11768675  0.34194572  0.07263860     0.11100
H4460       H  0.08262477  0.33900322  0.07865447     0.13000
H4461       H  0.05968541  0.31029918  0.06565784     0.09500
H4462       H  0.04800978  0.28797618  0.03528474     0.11600
H4463       H  0.09840867  0.30862670  0.00469728     0.08200
H4464       H  0.10997333  0.33089483  0.03496879     0.11000
C4465       C  0.10994861  0.29785072  0.87269097    -0.03600
C4466       C  0.12406844  0.31085894  0.88488522    -0.06200
C4467       C  0.13906498  0.32203044  0.87265290    -0.21300
C4468       C  0.14030977  0.32058265  0.84794803     0.24400
C4469       C  0.12632998  0.30731402  0.83581130    -0.18900
C4470       C  0.11133627  0.29614341  0.84802940    -0.08800
C4471       C  0.15653597  0.33292253  0.83580723    -0.19100
C4472       C  0.15794630  0.33619567  0.81218338    -0.23900
C4473       C  0.17411408  0.34886485  0.79997216     0.26500
C4474       C  0.17384378  0.35115243  0.77522121    -0.20700
C4475       C  0.18870343  0.36282575  0.76295700    -0.10300
C4476       C  0.20418927  0.37256978  0.77524742    -0.10900
C4477       C  0.20441420  0.37032757  0.79998136    -0.03800
C4478       C  0.18968568  0.35866927  0.81215112    -0.18900
H4479       H  0.12353070  0.31249575  0.90387581     0.10200
H4480       H  0.14969820  0.33198999  0.88253243     0.10200
H4481       H  0.12690143  0.30529630  0.81697631     0.09900
H4482       H  0.10080827  0.28614469  0.83805935     0.11000
H4483       H  0.16747952  0.33989319  0.84732601     0.11100
H4484       H  0.14665536  0.32959273  0.80107969     0.13000
H4485       H  0.16207941  0.34383392  0.76528560     0.09500
H4486       H  0.18805123  0.36422953  0.74392058     0.11600
H4487       H  0.21610712  0.37750197  0.81011160     0.08200
H4488       H  0.19086071  0.35755613  0.83105721     0.11000
C4489       C  0.09909733  0.46111175  0.49249040    -0.03600
C4490       C  0.10635290  0.45071991  0.48841313    -0.06200
C4491       C  0.11057939  0.44834041  0.46521647    -0.21300
C4492       C  0.10770719  0.45630193  0.44559224     0.24400
C4493       C  0.10102654  0.46716102  0.44995566    -0.18900
C4494       C  0.09672049  0.46941773  0.47293961    -0.08800
C4495       C  0.11185195  0.45304280  0.42103297    -0.19100
C4496       C  0.10718882  0.45787797  0.40086768    -0.23900
C4497       C  0.11062948  0.45416484  0.37630562     0.26500
C4498       C  0.10057576  0.45457064  0.35744520    -0.20700
C4499       C  0.10288280  0.45056505  0.33417123    -0.10300
C4500       C  0.11537040  0.44610157  0.32924729    -0.10900
C4501       C  0.12596975  0.44649438  0.34794793    -0.03800
C4502       C  0.12368076  0.45051481  0.37115480    -0.18900
H4503       H  0.10846418  0.44418118  0.50303547     0.10200
H4504       H  0.11590362  0.44006226  0.46257017     0.10200
H4505       H  0.09906801  0.47412279  0.43588414     0.09900
H4506       H  0.09139271  0.47771115  0.47530306     0.11000
H4507       H  0.11837725  0.44575106  0.41965753     0.11100
H4508       H  0.09961357  0.46407119  0.40197251     0.13000
H4509       H  0.09059456  0.45760865  0.36082766     0.09500
H4510       H  0.09455808  0.45045463  0.32021563     0.11600
H4511       H  0.13599006  0.44348990  0.34470807     0.08200
H4512       H  0.13218324  0.45075747  0.38489359     0.11000
C4513       C  0.08282547  0.54089770  0.62843313    -0.03600
C4514       C  0.06856144  0.54322380  0.62966096    -0.06200
C4515       C  0.07053915  0.55907664  0.63607324    -0.21300
C4516       C  0.08670511  0.57278750  0.64199850     0.24400
C4517       C  0.10096769  0.57047626  0.64108113    -0.18900
C4518       C  0.09905430  0.55471673  0.63427466    -0.08800
C4519       C  0.08841516  0.58940801  0.64894783    -0.19100
C4520       C  0.09880023  0.59881886  0.66676056    -0.23900
C4521       C  0.10021470  0.61499424  0.67539636     0.26500
C4522       C  0.10462491  0.61952002  0.69924404    -0.20700
C4523       C  0.10697965  0.63499603  0.70800616    -0.10300
C4524       C  0.10529229  0.64653604  0.69298385    -0.10900
C4525       C  0.10075946  0.64197952  0.66905627    -0.03800
C4526       C  0.09815200  0.62629940  0.66034506    -0.18900
H4527       H  0.05588365  0.53288032  0.62524898     0.10200
H4528       H  0.05938547  0.56059031  0.63667683     0.10200
H4529       H  0.11364350  0.58093870  0.64520755     0.09900
H4530       H  0.11030605  0.55338109  0.63352329     0.11000
H4531       H  0.07999772  0.59322386  0.64059418     0.11100
H4532       H  0.10579174  0.59387831  0.67653681     0.13000
H4533       H  0.10630913  0.61104422  0.71116680     0.09500
H4534       H  0.11047938  0.63805029  0.72651930     0.11600
H4535       H  0.09930102  0.65055193  0.65706225     0.08200
H4536       H  0.09502598  0.62329707  0.64174096     0.11000
C4537       C  0.11906459  0.44433958  0.64055269    -0.03600
C4538       C  0.12531009  0.43593786  0.62617386    -0.06200
C4539       C  0.13829030  0.43307261  0.63419800    -0.21300
C4540       C  0.14561748  0.43861374  0.65676784     0.24400
C4541       C  0.13916133  0.44668917  0.67155673    -0.18900
C4542       C  0.12596985  0.44946849  0.66352730    -0.08800
C4543       C  0.15956581  0.43518829  0.66396738    -0.19100
C4544       C  0.17089894  0.44330057  0.68166449    -0.23900
C4545       C  0.18507905  0.43990096  0.68763567     0.26500
C4546       C  0.19963318  0.45258994  0.69945585    -0.20700
C4547       C  0.21322975  0.44996815  0.70529643    -0.10300
C4548       C  0.21259090  0.43447528  0.69966276    -0.10900
C4549       C  0.19786935  0.42161567  0.68822043    -0.03800
C4550       C  0.18428878  0.42426792  0.68231123    -0.18900
H4551       H  0.12026340  0.43167631  0.60845014     0.10200
H4552       H  0.14281236  0.42667573  0.62247109     0.10200
H4553       H  0.14414772  0.45079474  0.68930700     0.09900
H4554       H  0.12148311  0.45599259  0.67504884     0.11000
H4555       H  0.16107787  0.42612046  0.65309218     0.11100
H4556       H  0.17044599  0.45345015  0.69134137     0.13000
H4557       H  0.20057349  0.46468395  0.70400597     0.09500
H4558       H  0.22426204  0.46013081  0.71426542     0.11600
H4559       H  0.19680498  0.40945024  0.68379996     0.08200
H4560       H  0.17311313  0.41390411  0.67394016     0.11000
C4561       C  0.02332503  0.48933954  0.54202422    -0.03600
C4562       C  0.01195304  0.49257179  0.55503413    -0.06200
C4563       C  0.99939617  0.49464435  0.54334965    -0.21300
C4564       C  0.99787199  0.49353288  0.51842615     0.24400
C4565       C  0.00946438  0.49053430  0.50548720    -0.18900
C4566       C  0.02194486  0.48845492  0.51712825    -0.08800
C4567       C  0.98446493  0.49612700  0.50673080    -0.19100
C4568       C  0.98109107  0.49426919  0.48315254    -0.23900
C4569       C  0.96901253  0.49849303  0.47107924     0.26500
C4570       C  0.97126619  0.50238997  0.44668652    -0.20700
C4571       C  0.96079758  0.50723819  0.43466750    -0.10300
C4572       C  0.94772782  0.50820851  0.44679455    -0.10900
C4573       C  0.94499494  0.50357232  0.47100071    -0.03800
C4574       C  0.95547950  0.49874329  0.48301284    -0.18900
H4575       H  0.01266764  0.49340485  0.57424915     0.10200
H4576       H  0.99080991  0.49709375  0.55386086     0.10200
H4577       H  0.00927405  0.48988567  0.48634573     0.09900
H4578       H  0.03050804  0.48606998  0.50647221     0.11000
H4579       H  0.97754803  0.50030883  0.51805282     0.11100
H4580       H  0.98803674  0.49036380  0.47154534     0.13000
H4581       H  0.98146920  0.50209667  0.43698684     0.09500
H4582       H  0.96321611  0.51060486  0.41602419     0.11600
H4583       H  0.93483554  0.50385190  0.48082132     0.08200
H4584       H  0.95287625  0.49519965  0.50155217     0.11000
C4585       C  0.88444106  0.53861977  0.80627844    -0.03600
C4586       C  0.88976400  0.53030662  0.79006431    -0.06200
C4587       C  0.89432731  0.51841536  0.79781293    -0.21300
C4588       C  0.89344741  0.51415668  0.82193448     0.24400
C4589       C  0.88832260  0.52251433  0.83834930    -0.18900
C4590       C  0.88395126  0.53468058  0.83060653    -0.08800
C4591       C  0.89820672  0.50113739  0.82913381    -0.19100
C4592       C  0.89047613  0.48988666  0.84702256    -0.23900
C4593       C  0.89373645  0.47557695  0.85282780     0.26500
C4594       C  0.88075319  0.46094538  0.86410533    -0.20700
C4595       C  0.88318721  0.44730809  0.87039068    -0.10300
C4596       C  0.89884246  0.44796429  0.86596099    -0.10900
C4597       C  0.91193013  0.46265172  0.85466272    -0.03800
C4598       C  0.90940003  0.47627312  0.84809358    -0.18900
H4599       H  0.89042661  0.53295792  0.77119095     0.10200
H4600       H  0.89829461  0.51227417  0.78478371     0.10200
H4601       H  0.88787571  0.51981105  0.85717084     0.09900
H4602       H  0.88004431  0.54086711  0.84362318     0.11000
H4603       H  0.90719480  0.49977051  0.81785981     0.11100
H4604       H  0.88032271  0.49033057  0.85674240     0.13000
H4605       H  0.86858175  0.46002025  0.86804126     0.09500
H4606       H  0.87280032  0.43631097  0.87910416     0.11600
H4607       H  0.92417262  0.46367193  0.85099908     0.08200
H4608       H  0.91985268  0.48745340  0.83983918     0.11000
C4609       C  0.85987919  0.31543096  0.85019418    -0.03600
C4610       C  0.85592681  0.30014167  0.86195838    -0.06200
C4611       C  0.84409589  0.28426840  0.85236225    -0.21300
C4612       C  0.83549456  0.28315650  0.83108158     0.24400
C4613       C  0.83932089  0.29840121  0.81916163    -0.18900
C4614       C  0.85154715  0.31439388  0.82853126    -0.08800
C4615       C  0.82306942  0.26578177  0.82186612    -0.19100
C4616       C  0.80828991  0.26190689  0.81079278    -0.23900
C4617       C  0.79456867  0.24409120  0.80424990     0.26500
C4618       C  0.77953422  0.24191139  0.79357192    -0.20700
C4619       C  0.76594464  0.22557985  0.78807216    -0.10300
C4620       C  0.76692064  0.21081218  0.79306623    -0.10900
C4621       C  0.78206008  0.21292426  0.80336358    -0.03800
C4622       C  0.79568719  0.22929819  0.80890262    -0.18900
H4623       H  0.86215578  0.30042071  0.87855591     0.10200
H4624       H  0.84146992  0.27274630  0.86182390     0.10200
H4625       H  0.83312945  0.29796734  0.80247387     0.09900
H4626       H  0.85431513  0.32593661  0.81902164     0.11000
H4627       H  0.82575707  0.25571977  0.82637908     0.11100
H4628       H  0.80566085  0.27221934  0.80743902     0.13000
H4629       H  0.77818980  0.25292420  0.78964045     0.09500
H4630       H  0.75460069  0.22456282  0.77994039     0.11600
H4631       H  0.78335819  0.20189580  0.80735270     0.08200
H4632       H  0.80688828  0.23006595  0.81697794     0.11000
C4633       C  0.92016239  0.32159142  0.91430003    -0.03600
C4634       C  0.91332674  0.30889911  0.89661559    -0.06200
C4635       C  0.91799643  0.29623870  0.89561218    -0.21300
C4636       C  0.92925980  0.29591170  0.91263420     0.24400
C4637       C  0.93519415  0.30799198  0.93108381    -0.18900
C4638       C  0.93097074  0.32091860  0.93164068    -0.08800
C4639       C  0.93608924  0.28403121  0.91083133    -0.19100
C4640       C  0.94216947  0.28165365  0.89022222    -0.23900
C4641       C  0.95409629  0.27485705  0.88976031     0.26500
C4642       C  0.95099098  0.26024733  0.90272352    -0.20700
C4643       C  0.96351892  0.25542318  0.90402502    -0.10300
C4644       C  0.97947316  0.26540548  0.89291814    -0.10900
C4645       C  0.98219873  0.27955750  0.87916329    -0.03800
C4646       C  0.96953386  0.28405934  0.87731592    -0.18900
H4647       H  0.90512112  0.30932818  0.88289610     0.10200
H4648       H  0.91312520  0.28695788  0.88132112     0.10200
H4649       H  0.94389813  0.30799783  0.94435699     0.09900
H4650       H  0.93651503  0.33069401  0.94525252     0.11000
H4651       H  0.93905612  0.27973727  0.92728968     0.11100
H4652       H  0.94104977  0.28773896  0.87417448     0.13000
H4653       H  0.93907532  0.25284249  0.91226403     0.09500
H4654       H  0.96111510  0.24449894  0.91482001     0.11600
H4655       H  0.99435460  0.28746253  0.87038483     0.08200
H4656       H  0.97218219  0.29534647  0.86721034     0.11000
C4657       C  0.94564412  0.41849502  0.80205439    -0.03600
C4658       C  0.95811675  0.43597354  0.80067839    -0.06200
C4659       C  0.97086318  0.44198022  0.78317177    -0.21300
C4660       C  0.97143244  0.43061563  0.76655471     0.24400
C4661       C  0.95852282  0.41332716  0.76731278    -0.18900
C4662       C  0.94574538  0.40734590  0.78471161    -0.08800
C4663       C  0.98566451  0.43587139  0.74911703    -0.19100
C4664       C  0.99680435  0.45219404  0.74291094    -0.23900
C4665       C  0.01037644  0.45671275  0.72471939     0.26500
C4666       C  0.01865155  0.44714543  0.72169504    -0.20700
C4667       C  0.03077007  0.45130595  0.70359425    -0.10300
C4668       C  0.03474257  0.46500051  0.68803079    -0.10900
C4669       C  0.02688043  0.47487977  0.69162951    -0.03800
C4670       C  0.01502175  0.47091291  0.70997300    -0.18900
H4671       H  0.95848640  0.44493101  0.81378255     0.10200
H4672       H  0.98060998  0.45535214  0.78352611     0.10200
H4673       H  0.95858927  0.40426611  0.75476877     0.09900
H4674       H  0.93647944  0.39379139  0.78528454     0.11000
H4675       H  0.98661809  0.42567094  0.74034937     0.11100
H4676       H  0.99521477  0.46251571  0.74980724     0.13000
H4677       H  0.01572563  0.43640674  0.73320684     0.09500
H4678       H  0.03654855  0.44340772  0.70122442     0.11600
H4679       H  0.02969889  0.48553887  0.67999063     0.08200
H4680       H  0.00900047  0.47861039  0.71211856     0.11000
C4681       C  0.96053297  0.45529607  0.94914969    -0.03600
C4682       C  0.96724922  0.47128531  0.93792009    -0.06200
C4683       C  0.97891196  0.48628201  0.94984965    -0.21300
C4684       C  0.98418166  0.48565428  0.97319590     0.24400
C4685       C  0.97767458  0.46956920  0.98421300    -0.18900
C4686       C  0.96591083  0.45464671  0.97241730    -0.08800
C4687       C  0.99665801  0.50197143  0.98514963    -0.19100
C4688       C  0.99958613  0.50349486  0.00883695    -0.23900
C4689       C  0.01157845  0.51980845  0.02116144     0.26500
C4690       C  0.01041996  0.52060285  0.04600737    -0.20700
C4691       C  0.02113468  0.53566824  0.05846286    -0.10300
C4692       C  0.03335379  0.55034541  0.04634106    -0.10900
C4693       C  0.03478418  0.54944938  0.02151278    -0.03800
C4694       C  0.02411920  0.53437518  0.00908119    -0.18900
H4695       H  0.96334401  0.47223263  0.92003384     0.10200
H4696       H  0.98376539  0.49845034  0.94082888     0.10200
H4697       H  0.98172719  0.46825659  0.00177820     0.09900
H4698       H  0.96117875  0.44251762  0.98150237     0.11000
H4699       H  0.00301661  0.51322332  0.97393881     0.11100
H4700       H  0.99227307  0.49249947  0.02020707     0.13000
H4701       H  0.00101190  0.50955348  0.05584413     0.09500
H4702       H  0.01967533  0.53586168  0.07754886     0.11600
H4703       H  0.04416468  0.56044519  0.01156881     0.08200
H4704       H  0.02592587  0.53428269  0.99010857     0.11000
C4705       C  0.00560495  0.22269188  0.82571954    -0.03600
C4706       C  0.98890512  0.21926089  0.82087959    -0.06200
C4707       C  0.98192648  0.21430304  0.79806086    -0.21300
C4708       C  0.99143834  0.21265187  0.77955779     0.24400
C4709       C  0.00790487  0.21545099  0.78462653    -0.18900
C4710       C  0.01493278  0.22054366  0.80737504    -0.08800
C4711       C  0.98374544  0.20810664  0.75534291    -0.19100
C4712       C  0.99299432  0.21154663  0.73516114    -0.23900
C4713       C  0.98536540  0.20866249  0.71093941     0.26500
C4714       C  0.99581608  0.21814042  0.69177150    -0.20700
C4715       C  0.98888294  0.21674740  0.66905533    -0.10300
C4716       C  0.97132177  0.20577100  0.66505487    -0.10900
C4717       C  0.96103969  0.19565790  0.68398685    -0.03800
C4718       C  0.96797569  0.19698827  0.70659891    -0.18900
H4719       H  0.98138851  0.22084930  0.83455844     0.10200
H4720       H  0.96916419  0.21210705  0.79472849     0.10200
H4721       H  0.01543677  0.21370564  0.77118360     0.09900
H4722       H  0.02773605  0.22283859  0.81059529     0.11000
H4723       H  0.97004312  0.20298778  0.75418371     0.11100
H4724       H  0.00683925  0.21806326  0.73620687     0.13000
H4725       H  0.00931187  0.22703517  0.69452624     0.09500
H4726       H  0.99718032  0.22460697  0.65482394     0.11600
H4727       H  0.94751934  0.18677154  0.68142424     0.08200
H4728       H  0.95961218  0.18886546  0.72054671     0.11000
C4729       C  0.87797619  0.13009021  0.52480905    -0.03600
C4730       C  0.88218006  0.11830986  0.51508829    -0.06200
C4731       C  0.86947705  0.10267823  0.50580158    -0.21300
C4732       C  0.85220625  0.09825006  0.50626645     0.24400
C4733       C  0.84794498  0.11003223  0.51587585    -0.18900
C4734       C  0.86070648  0.12580228  0.52493337    -0.08800
C4735       C  0.83920452  0.08159248  0.49567299    -0.19100
C4736       C  0.82253395  0.07318927  0.50176032    -0.23900
C4737       C  0.81007278  0.05629060  0.49142730     0.26500
C4738       C  0.79744081  0.04377231  0.50608461    -0.20700
C4739       C  0.78544679  0.02777338  0.49689089    -0.10300
C4740       C  0.78550355  0.02408002  0.47261261    -0.10900
C4741       C  0.79809447  0.03674120  0.45784422    -0.03800
C4742       C  0.81030747  0.05263817  0.46717740    -0.18900
H4743       H  0.89535190  0.12121112  0.51450015     0.10200
H4744       H  0.87316300  0.09394342  0.49833997     0.10200
H4745       H  0.83483562  0.10728673  0.51603463     0.09900
H4746       H  0.85702636  0.13457337  0.53224508     0.11000
H4747       H  0.84372885  0.07554925  0.48321368     0.11100
H4748       H  0.81805620  0.07813747  0.51589096     0.13000
H4749       H  0.79698187  0.04631968  0.52480404     0.09500
H4750       H  0.77598263  0.01836483  0.50879078     0.11600
H4751       H  0.79856204  0.03436213  0.43906617     0.08200
H4752       H  0.81972364  0.06217438  0.45535577     0.11000
C4753       C  0.00776173  0.22638880  0.51718004    -0.03600
C4754       C  0.00977337  0.22705584  0.49232904    -0.06200
C4755       C  0.02500161  0.22945741  0.48214686    -0.21300
C4756       C  0.03862841  0.23149214  0.49653186     0.24400
C4757       C  0.03676603  0.23120468  0.52136148    -0.18900
C4758       C  0.02157256  0.22871069  0.53151870    -0.08800
C4759       C  0.05413599  0.23268848  0.48535503    -0.19100
C4760       C  0.06971715  0.24097747  0.49560903    -0.23900
C4761       C  0.08512066  0.24150499  0.48532618     0.26500
C4762       C  0.10117038  0.25603242  0.48920096    -0.20700
C4763       C  0.11604317  0.25676962  0.48066390    -0.10300
C4764       C  0.11529448  0.24280703  0.46843211    -0.10900
C4765       C  0.09920146  0.22810984  0.46485304    -0.03800
C4766       C  0.08424686  0.22749508  0.47310549    -0.18900
H4767       H  0.99944371  0.22530576  0.48072890     0.10200
H4768       H  0.02608433  0.22955635  0.46296122     0.10200
H4769       H  0.04677657  0.23226158  0.53304873     0.09900
H4770       H  0.02054771  0.22820506  0.55071884     0.11000
H4771       H  0.05273211  0.22687337  0.46798662     0.11100
H4772       H  0.07149157  0.24827536  0.51175400     0.13000
H4773       H  0.10219808  0.26691387  0.49877556     0.09500
H4774       H  0.12818071  0.26828834  0.48387021     0.11600
H4775       H  0.09814931  0.21712257  0.45557605     0.08200
H4776       H  0.07207310  0.21592796  0.47039484     0.11000
C4777       C  0.86695676  0.17657632  0.61906215    -0.03600
C4778       C  0.85249298  0.17445231  0.60667144    -0.06200
C4779       C  0.83753486  0.17068541  0.61893833    -0.21300
C4780       C  0.83676450  0.16916819  0.64381880     0.24400
C4781       C  0.85112058  0.17105971  0.65620985    -0.18900
C4782       C  0.86602758  0.17474568  0.64398228    -0.08800
C4783       C  0.82061450  0.16499568  0.65614682    -0.19100
C4784       C  0.82003592  0.16972690  0.67873707    -0.23900
C4785       C  0.80392210  0.16566535  0.69127761     0.26500
C4786       C  0.80408908  0.16710074  0.71619433    -0.20700
C4787       C  0.78914576  0.16319450  0.72868405    -0.10300
C4788       C  0.77372420  0.15785022  0.71643163    -0.10900
C4789       C  0.77369581  0.15680270  0.69145337    -0.03800
C4790       C  0.78855554  0.16071655  0.67904503    -0.18900
H4791       H  0.85273186  0.17576982  0.58751634     0.10200
H4792       H  0.82657213  0.16913272  0.60897858     0.10200
H4793       H  0.85081989  0.16939924  0.67529002     0.09900
H4794       H  0.87684259  0.17614325  0.65415049     0.11000
H4795       H  0.80896915  0.15801668  0.64586151     0.11100
H4796       H  0.83186424  0.17683680  0.68867807     0.13000
H4797       H  0.81579698  0.17109536  0.72606539     0.09500
H4798       H  0.78966096  0.16427785  0.74787890     0.11600
H4799       H  0.76212872  0.15294014  0.68129941     0.08200
H4800       H  0.78782838  0.16003276  0.65987746     0.11000
C4801       C  0.99892115  0.27636327  0.58466530    -0.03600
C4802       C  0.01216900  0.28076266  0.56818771    -0.06200
C4803       C  0.02449296  0.29794075  0.56437132    -0.21300
C4804       C  0.02412291  0.31093279  0.57753175     0.24400
C4805       C  0.01144922  0.30643087  0.59502549    -0.18900
C4806       C  0.99883460  0.28931365  0.59833233    -0.08800
C4807       C  0.03544957  0.32907152  0.57067652    -0.19100
C4808       C  0.04169175  0.34186316  0.58661843    -0.23900
C4809       C  0.04962461  0.36008780  0.57962001     0.26500
C4810       C  0.06270614  0.37265775  0.59370999    -0.20700
C4811       C  0.06824282  0.38998665  0.59005827    -0.10300
C4812       C  0.06031879  0.39492563  0.57283525    -0.10900
C4813       C  0.04771026  0.38244922  0.55807827    -0.03800
C4814       C  0.04257630  0.36516448  0.56119409    -0.18900
H4815       H  0.01231647  0.27102399  0.55712625     0.10200
H4816       H  0.03400870  0.30113813  0.55061118     0.10200
H4817       H  0.01060995  0.31620308  0.60507175     0.09900
H4818       H  0.98863575  0.28623847  0.61093989     0.11000
H4819       H  0.03815674  0.33201791  0.55189511     0.11100
H4820       H  0.04031225  0.33888757  0.60549664     0.13000
H4821       H  0.06814817  0.36900867  0.60817777     0.09500
H4822       H  0.07774054  0.39940943  0.60193875     0.11600
H4823       H  0.04126681  0.38601227  0.54494880     0.08200
H4824       H  0.03221080  0.35571647  0.55038934     0.11000
C4825       C  0.88431276  0.35240689  0.99958725    -0.03600
C4826       C  0.87978467  0.33550399  0.00523836    -0.06200
C4827       C  0.87489144  0.32925772  0.02848736    -0.21300
C4828       C  0.87437379  0.33970408  0.04665534     0.24400
C4829       C  0.87836235  0.35645557  0.04077882    -0.18900
C4830       C  0.88335728  0.36272521  0.01762327    -0.08800
C4831       C  0.86947418  0.33257996  0.07129032    -0.19100
C4832       C  0.87353921  0.34225562  0.09120626    -0.23900
C4833       C  0.86976436  0.33497969  0.11581744     0.26500
C4834       C  0.88020365  0.34491318  0.13475425    -0.20700
C4835       C  0.87745345  0.33835892  0.15798465    -0.10300
C4836       C  0.86410281  0.32169545  0.16287573    -0.10900
C4837       C  0.85331110  0.31194693  0.14403154    -0.03800
C4838       C  0.85603751  0.31851324  0.12084800    -0.18900
H4839       H  0.88043285  0.32724315  0.99184722     0.10200
H4840       H  0.87177545  0.31626338  0.03239465     0.10200
H4841       H  0.87756596  0.36477321  0.05389426     0.09900
H4842       H  0.88648801  0.37574110  0.01382847     0.11000
H4843       H  0.86327770  0.31877604  0.07308785     0.11100
H4844       H  0.88106318  0.35607779  0.08969755     0.13000
H4845       H  0.89079916  0.35768250  0.13146632     0.09500
H4846       H  0.88606367  0.34617566  0.17198889     0.11600
H4847       H  0.84274754  0.29913537  0.14717797     0.08200
H4848       H  0.84732744  0.31066711  0.10697581     0.11000
C4849       C  0.78444008  0.22801218  0.30349034    -0.03600
C4850       C  0.78395986  0.21329162  0.31272526    -0.06200
C4851       C  0.76887389  0.19992552  0.32226946    -0.21300
C4852       C  0.75378097  0.20075701  0.32264107     0.24400
C4853       C  0.75424526  0.21558441  0.31379269    -0.18900
C4854       C  0.76940692  0.22904620  0.30431570    -0.08800
C4855       C  0.73805899  0.18605835  0.33292482    -0.19100
C4856       C  0.72200586  0.18237810  0.32754590    -0.23900
C4857       C  0.70633713  0.16726493  0.33726880     0.26500
C4858       C  0.69077281  0.16107006  0.32499575    -0.20700
C4859       C  0.67566525  0.14720259  0.33383715    -0.10300
C4860       C  0.67573018  0.13938957  0.35543053    -0.10900
C4861       C  0.69130342  0.14556599  0.36771197    -0.03800
C4862       C  0.70641671  0.15930348  0.35877209    -0.18900
H4863       H  0.79528274  0.21206316  0.31266234     0.10200
H4864       H  0.76896636  0.18877494  0.32920026     0.10200
H4865       H  0.74304471  0.21698243  0.31445506     0.09900
H4866       H  0.76933850  0.24026621  0.29765487     0.11000
H4867       H  0.73988721  0.17736384  0.34423093     0.11100
H4868       H  0.72013805  0.19019496  0.31457164     0.13000
H4869       H  0.69028723  0.16702810  0.30851064     0.09500
H4870       H  0.66385525  0.14290016  0.32409135     0.11600
H4871       H  0.69178954  0.13987243  0.38444394     0.08200
H4872       H  0.71797538  0.16389510  0.36916643     0.11000
C4873       C  0.89427509  0.46418337  0.36799367    -0.03600
C4874       C  0.87925219  0.44922491  0.37489879    -0.06200
C4875       C  0.87712182  0.43306150  0.37029837    -0.21300
C4876       C  0.88980241  0.43133041  0.35838677     0.24400
C4877       C  0.90496102  0.44629674  0.35162375    -0.18900
C4878       C  0.90714861  0.46252137  0.35636937    -0.08800
C4879       C  0.88664417  0.41372008  0.35348542    -0.19100
C4880       C  0.89436539  0.41013520  0.33574119    -0.23900
C4881       C  0.89018616  0.39252667  0.32861132     0.26500
C4882       C  0.89537365  0.39049327  0.30595976    -0.20700
C4883       C  0.89142526  0.37438021  0.29765815    -0.10300
C4884       C  0.88229418  0.35971373  0.31185293    -0.10900
C4885       C  0.87750479  0.36167839  0.33493153    -0.03800
C4886       C  0.88136764  0.37793472  0.34324560    -0.18900
H4887       H  0.86914071  0.44997024  0.38414791     0.10200
H4888       H  0.86539395  0.42182244  0.37589598     0.10200
H4889       H  0.91530084  0.44561195  0.34303694     0.09900
H4890       H  0.91895291  0.47375762  0.35099523     0.11000
H4891       H  0.87666241  0.40330911  0.36368900     0.11100
H4892       H  0.90335700  0.42051942  0.32447619     0.13000
H4893       H  0.90229204  0.40143364  0.29434406     0.09500
H4894       H  0.89547855  0.37341561  0.27989234     0.11600
H4895       H  0.87045288  0.35063344  0.34631425     0.08200
H4896       H  0.87746388  0.37895355  0.36104698     0.11000
C4897       C  0.86009726  0.25435734  0.35959476    -0.03600
C4898       C  0.84815478  0.23746330  0.36611809    -0.06200
C4899       C  0.85180826  0.22931918  0.38452442    -0.21300
C4900       C  0.86767080  0.23769982  0.39623307     0.24400
C4901       C  0.87939996  0.25480083  0.39019900    -0.18900
C4902       C  0.87558761  0.26307101  0.37217673    -0.08800
C4903       C  0.87161610  0.22840818  0.41476430    -0.19100
C4904       C  0.88759296  0.23129026  0.41848882    -0.23900
C4905       C  0.89212687  0.22243125  0.43697691     0.26500
C4906       C  0.90713722  0.22161882  0.43410468    -0.20700
C4907       C  0.91278971  0.21486930  0.45200996    -0.10300
C4908       C  0.90359686  0.20884856  0.47335306    -0.10900
C4909       C  0.88826879  0.20920439  0.47596955    -0.03800
C4910       C  0.88261498  0.21595971  0.45802744    -0.18900
H4911       H  0.83608140  0.23049413  0.35676172     0.10200
H4912       H  0.84245322  0.21624612  0.38909787     0.10200
H4913       H  0.89153604  0.26181125  0.39936067     0.09900
H4914       H  0.88504710  0.27607237  0.36743978     0.11000
H4915       H  0.86097424  0.21830649  0.42452373     0.11100
H4916       H  0.89784549  0.24020681  0.40694515     0.13000
H4917       H  0.91472981  0.22655807  0.41810030     0.09500
H4918       H  0.92465501  0.21485270  0.44940151     0.11600
H4919       H  0.88099859  0.20496393  0.49232664     0.08200
H4920       H  0.87122985  0.21676646  0.46117878     0.11000
C4921       C  0.93034359  0.34961152  0.24129381    -0.03600
C4922       C  0.93583474  0.36369527  0.25655729    -0.06200
C4923       C  0.95330708  0.37541878  0.25919684    -0.21300
C4924       C  0.96541699  0.37355834  0.24595399     0.24400
C4925       C  0.95979492  0.36009902  0.22948369    -0.18900
C4926       C  0.94240508  0.34811069  0.22738566    -0.08800
C4927       C  0.98381869  0.38424783  0.25156981    -0.19100
C4928       C  0.99587417  0.38974249  0.23461862    -0.23900
C4929       C  0.01424433  0.39708772  0.24012683     0.26500
C4930       C  0.02652037  0.40978917  0.22527703    -0.20700
C4931       C  0.04385289  0.41496090  0.22785236    -0.10300
C4932       C  0.04901357  0.40705692  0.24480329    -0.10900
C4933       C  0.03683768  0.39469972  0.26009790    -0.03800
C4934       C  0.01959185  0.38990958  0.25802028    -0.18900
H4935       H  0.92674075  0.36487928  0.26777294     0.10200
H4936       H  0.95741634  0.38560101  0.27215772     0.10200
H4937       H  0.96890233  0.35816338  0.21943079     0.09900
H4938       H  0.93842585  0.33719152  0.21576597     0.11000
H4939       H  0.98753732  0.38707882  0.27012856     0.11100
H4940       H  0.99211180  0.38820471  0.21601654     0.13000
H4941       H  0.02261529  0.41529576  0.21119364     0.09500
H4942       H  0.05307151  0.42430174  0.21561934     0.11600
H4943       H  0.04060964  0.38830765  0.27302711     0.08200
H4944       H  0.01033978  0.37979595  0.26934210     0.11000
C4945       C  0.83140025  0.21826746  0.21251983    -0.03600
C4946       C  0.82256458  0.21482939  0.19081580    -0.06200
C4947       C  0.82028513  0.20121816  0.17663699    -0.21300
C4948       C  0.82703926  0.19091008  0.18356363     0.24400
C4949       C  0.83537705  0.19389981  0.20571437    -0.18900
C4950       C  0.83745904  0.20745708  0.22015204    -0.08800
C4951       C  0.82482206  0.17711260  0.16718881    -0.19100
C4952       C  0.83556373  0.17089676  0.16622490    -0.23900
C4953       C  0.83275904  0.15698300  0.14964908     0.26500
C4954       C  0.83739303  0.14503028  0.15691404    -0.20700
C4955       C  0.83333596  0.13077345  0.14284697    -0.10300
C4956       C  0.82486803  0.12838564  0.12097220    -0.10900
C4957       C  0.82130462  0.14098158  0.11288835    -0.03800
C4958       C  0.82517658  0.15515589  0.12713500    -0.18900
H4959       H  0.81766244  0.22289839  0.18456132     0.10200
H4960       H  0.81363246  0.19903671  0.15982516     0.10200
H4961       H  0.84027928  0.18584414  0.21193399     0.09900
H4962       H  0.84434549  0.20987509  0.23679222     0.11000
H4963       H  0.81409378  0.17224990  0.15493294     0.11100
H4964       H  0.84622074  0.17548678  0.17855174     0.13000
H4965       H  0.84348939  0.14632880  0.17399290     0.09500
H4966       H  0.83643134  0.12136461  0.14939411     0.11600
H4967       H  0.81486623  0.13951188  0.09605759     0.08200
H4968       H  0.82202478  0.16452162  0.12062799     0.11000
loop_ 
_geom_bond_atom_site_label_1 
_geom_bond_atom_site_label_2 
_geom_bond_distance 
_geom_bond_site_symmetry_2 
_ccdc_geom_bond_type 
Zr1           O2   2.441       .  S
Zr1           O3   2.432       .  S
Zr1           O4   2.441       .  S
Zr1           O7   2.448       .  S
Zr1           O9   2.383       .  S
Zr1          O10   2.382       .  S
Zr1          O11   2.409       .  S
Zr1          O12   2.399       .  S
O2           H58   0.990       .  S
O2           H66   0.990       .  S
O3           C23   1.284       .  A
O4           C25   1.285       .  A
O5          Zr15   2.400       .  S
O5           C24   1.280       .  A
O6          Zr14   2.445       .  S
O6           C25   1.287       .  A
O7           C24   1.287       .  A
O8          Zr16   2.433       .  S
O8           C23   1.283       .  A
O9          Zr14   2.400       .  S
O9          Zr16   2.381       .  S
O10         Zr15   2.393       .  S
O10         Zr16   2.373       .  S
O10          H45   0.965       .  S
O11         Zr14   2.411       .  S
O11         Zr31   2.384       .  S
O11          H48   0.964       .  S
O12         Zr15   2.392       .  S
O12         Zr31   2.390       .  S
Zr13         O38   2.439       .  S
Zr13         O32   2.437       .  S
Zr13         O40   2.467       .  S
Zr13         O28   2.426       .  S
Zr13         O19   2.406       .  S
Zr13         O20   2.412       .  S
Zr13         O21   2.387       .  S
Zr13         O22   2.375       .  S
Zr14         O33   2.439       .  S
Zr14         O26   2.437       .  S
Zr14         O27   2.463       .  S
Zr14         O20   2.401       .  S
Zr14         O21   2.398       .  S
Zr15         O17   2.437       .  S
Zr15         O39   2.434       .  S
Zr15         O41   2.419       .  S
Zr15         O19   2.389       .  S
Zr15         O22   2.387       .  S
Zr16         O42   2.435       .  S
Zr16         O43   2.438       .  S
Zr16         O18   2.438       .  S
Zr16         O19   2.409       .  S
Zr16         O20   2.392       .  S
O17          H54   0.990       .  S
O18          H49   0.990       .  S
O18          H63   0.990       .  S
O20          H46   0.964       .  S
O21         Zr31   2.382       .  S
O22         Zr31   2.369       .  S
O22          H47   0.965       .  S
C23        C4849   1.490       .  S
C24        C4945   1.475       .  S
C25        C4897   1.480       .  S
O26          H62   0.990       .  S
O27          C29   1.290       .  A
O28          C29   1.286       .  A
C29        C4884   1.489       .  S
O30         Zr31   2.435       .  S
O30          H59   0.990       .  S
Zr31         O34   2.436       .  S
Zr31         O35   2.437       .  S
Zr31         O36   2.412       .  S
O32          C37   1.284       .  A
O33          H50   0.990       .  S
O33          H65   0.991       .  S
O34          H51   0.990       .  S
O35          H55   0.990       .  S
O35          H64   0.990       .  S
O36          C37   1.280       .  A
C37        C4921   1.469       .  S
O38          H57   0.991       .  S
O38          H61   0.990       .  S
O39          H53   0.990       .  S
O39          H60   0.990       .  S
O40          C44   1.291       .  A
O41          C44   1.282       .  A
O42          H52   0.990       .  S
O43          H56   0.990       .  S
C44        C4836   1.491       .  S
Zr67         O68   2.442       .  S
Zr67         O69   2.452       .  S
Zr67         O70   2.439       .  S
Zr67         O73   2.448       .  S
Zr67         O75   2.386       .  S
Zr67         O76   2.380       .  S
Zr67         O77   2.417       .  S
Zr67         O78   2.406       .  S
O68         H124   0.990       .  S
O68         H132   0.990       .  S
O69          C89   1.287       .  A
O70          C91   1.285       .  A
O71         Zr81   2.410       .  S
O71          C90   1.281       .  A
O72         Zr80   2.444       .  S
O72          C91   1.287       .  A
O73          C90   1.287       .  A
O74         Zr82   2.421       .  S
O74          C89   1.281       .  A
O75         Zr80   2.401       .  S
O75         Zr82   2.380       .  S
O76         Zr81   2.393       .  S
O76         Zr82   2.375       .  S
O76         H111   0.967       .  S
O77         Zr80   2.407       .  S
O77         Zr97   2.384       .  S
O77         H114   0.963       .  S
O78         Zr81   2.386       .  S
O78         Zr97   2.397       .  S
Zr79        O104   2.439       .  S
Zr79         O98   2.442       .  S
Zr79        O106   2.441       .  S
Zr79         O94   2.425       .  S
Zr79         O85   2.405       .  S
Zr79         O86   2.412       .  S
Zr79         O87   2.374       .  S
Zr79         O88   2.379       .  S
Zr80         O99   2.437       .  S
Zr80         O92   2.436       .  S
Zr80         O93   2.461       .  S
Zr80         O86   2.401       .  S
Zr80         O87   2.394       .  S
Zr81         O83   2.435       .  S
Zr81        O105   2.436       .  S
Zr81        O107   2.409       .  S
Zr81         O85   2.389       .  S
Zr81         O88   2.392       .  S
Zr82        O108   2.438       .  S
Zr82        O109   2.435       .  S
Zr82         O84   2.438       .  S
Zr82         O85   2.400       .  S
Zr82         O86   2.389       .  S
O83         H120   0.990       .  S
O84         H115   0.990       .  S
O84         H129   0.990       .  S
O86         H112   0.965       .  S
O87         Zr97   2.380       .  S
O88         Zr97   2.367       .  S
O88         H113   0.966       .  S
C89        C4729   1.490       .  S
C90        C4777   1.486       .  S
C91        C4908   1.486       .  S
O92         H128   0.989       .  S
O93          C95   1.290       .  A
O94          C95   1.284       .  A
C95        C4753   1.491   1_655  S
O96         Zr97   2.438       .  S
O96         H125   0.990       .  S
Zr97        O100   2.435       .  S
Zr97        O101   2.438       .  S
Zr97        O102   2.418       .  S
O98         C103   1.284       .  A
O99         H116   0.990       .  S
O99         H131   0.990       .  S
O100        H117   0.990       .  S
O101        H121   0.990       .  S
O101        H130   0.991       .  S
O102        C103   1.281       .  A
C103       C4801   1.476       .  S
O104        H123   0.990       .  S
O104        H127   0.991   1_655  S
O105        H119   0.990       .  S
O105        H126   0.990       .  S
O106        C110   1.287       .  A
O107        C110   1.281       .  A
O108        H118   0.990       .  S
O109        H122   0.990       .  S
C110       C4716   1.481       .  S
Zr133       O134   2.441       .  S
Zr133       O135   2.452       .  S
Zr133       O136   2.443       .  S
Zr133       O139   2.451       .  S
Zr133       O141   2.386       .  S
Zr133       O142   2.381       .  S
Zr133       O143   2.418       .  S
Zr133       O144   2.408       .  S
O134        H190   0.990       .  S
O134        H198   0.990       .  S
O135        C155   1.287       .  A
O136        C157   1.286       .  A
O137       Zr147   2.410       .  S
O137        C156   1.282       .  A
O138       Zr146   2.451       .  S
O138        C157   1.289       .  A
O139        C156   1.288       .  A
O140       Zr148   2.435       .  S
O140        C155   1.285       .  A
O141       Zr146   2.402       .  S
O141       Zr148   2.377       .  S
O142       Zr147   2.392       .  S
O142       Zr148   2.372       .  S
O142        H177   0.967       .  S
O143       Zr146   2.409       .  S
O143       Zr163   2.382       .  S
O143        H180   0.964       .  S
O144       Zr147   2.389       .  S
O144       Zr163   2.396       .  S
Zr145       O170   2.439       .  S
Zr145       O164   2.450       .  S
Zr145       O172   2.467       .  S
Zr145       O160   2.441       .  S
Zr145       O151   2.407       .  S
Zr145       O152   2.417       .  S
Zr145       O153   2.381       .  S
Zr145       O154   2.383       .  S
Zr146       O165   2.442       .  S
Zr146       O158   2.436       .  S
Zr146       O159   2.455       .  S
Zr146       O152   2.404       .  S
Zr146       O153   2.395       .  S
Zr147       O149   2.435       .  S
Zr147       O171   2.435       .  S
Zr147       O173   2.417       .  S
Zr147       O151   2.383       .  S
Zr147       O154   2.393       .  S
Zr148       O174   2.437       .  S
Zr148       O175   2.436       .  S
Zr148       O150   2.436       .  S
Zr148       O151   2.403       .  S
Zr148       O152   2.396       .  S
O149        H186   0.990       .  S
O150        H181   0.990       .  S
O150        H195   0.990       .  S
O152        H178   0.965       .  S
O153       Zr163   2.376       .  S
O154       Zr163   2.374       .  S
O154        H179   0.966       .  S
C155       C4596   1.498       .  S
C156       C4681   1.484       .  S
C157       C4657   1.489       .  S
O158        H194   0.990       .  S
O159        C161   1.288       .  A
O160        C161   1.287       .  A
C161       C4609   1.491       .  S
O162       Zr163   2.435       .  S
O162        H191   0.990       .  S
Zr163       O166   2.435       .  S
Zr163       O167   2.436       .  S
Zr163       O168   2.424       .  S
O164        C169   1.286       .  A
O165        H182   0.990       .  S
O165        H197   0.989       .  S
O166        H183   0.990       .  S
O167        H187   0.990       .  S
O167        H196   0.990       .  S
O168        C169   1.282       .  A
C169       C4633   1.476       .  S
O170        H189   0.990       .  S
O170        H193   0.990       .  S
O171        H185   0.990       .  S
O171        H192   0.990       .  S
O172        C176   1.292       .  A
O173        C176   1.282       .  A
O174        H184   0.991       .  S
O175        H188   0.990       .  S
C176       C4825   1.491       .  S
Zr199       O200   2.441       .  S
Zr199       O201   2.427       .  S
Zr199       O202   2.438       .  S
Zr199       O205   2.434       .  S
Zr199       O207   2.384       .  S
Zr199       O208   2.384       .  S
Zr199       O209   2.406       .  S
Zr199       O210   2.400       .  S
O200        H256   0.990       .  S
O200        H264   0.990       .  S
O201        C221   1.282       .  A
O202        C223   1.285       .  A
O203       Zr213   2.426       .  S
O203        C222   1.285       .  A
O204       Zr212   2.448       .  S
O204        C223   1.288       .  A
O205        C222   1.285       .  A
O206       Zr214   2.430       .  S
O206        C221   1.283       .  A
O207       Zr212   2.403       .  S
O207       Zr214   2.378       .  S
O208       Zr213   2.394       .  S
O208       Zr214   2.374       .  S
O208        H243   0.966       .  S
O209       Zr212   2.410       .  S
O209       Zr229   2.383       .  S
O209        H246   0.964       .  S
O210       Zr213   2.385       .  S
O210       Zr229   2.385       .  S
Zr211       O236   2.440       .  S
Zr211       O230   2.439       .  S
Zr211       O238   2.446       .  S
Zr211       O226   2.426       .  S
Zr211       O217   2.408       .  S
Zr211       O218   2.410       .  S
Zr211       O219   2.379       .  S
Zr211       O220   2.380       .  S
Zr212       O231   2.437       .  S
Zr212       O224   2.435       .  S
Zr212       O225   2.466       .  S
Zr212       O218   2.403       .  S
Zr212       O219   2.395       .  S
Zr213       O215   2.434       .  S
Zr213       O237   2.437       .  S
Zr213       O239   2.430       .  S
Zr213       O217   2.390       .  S
Zr213       O220   2.389       .  S
Zr214       O240   2.437       .  S
Zr214       O241   2.435       .  S
Zr214       O216   2.438       .  S
Zr214       O217   2.406       .  S
Zr214       O218   2.396       .  S
O215        H252   0.990       .  S
O216        H247   0.990       .  S
O216        H261   0.990       .  S
O218        H244   0.964       .  S
O219       Zr229   2.382       .  S
O220       Zr229   2.372       .  S
O220        H245   0.968       .  S
C221       C4513   1.485       .  S
C222       C4561   1.486       .  S
C223       C4668   1.484       .  S
O224        H260   0.990       .  S
O225        C227   1.291       .  A
O226        C227   1.284       .  A
C227       C4537   1.492       .  S
O228       Zr229   2.437       .  S
O228        H257   0.991       .  S
Zr229       O232   2.436       .  S
Zr229       O233   2.439       .  S
Zr229       O234   2.414       .  S
O230        C235   1.284       .  A
O231        H248   0.990       .  S
O231        H263   0.990       .  S
O232        H249   0.990       .  S
O233        H253   0.990       .  S
O233        H262   0.990       .  S
O234        C235   1.280       .  A
C235       C4812   1.469       .  S
O236        H255   0.990       .  S
O236        H259   0.991       .  S
O237        H251   0.990       .  S
O237        H258   0.990       .  S
O238        C242   1.287       .  A
O239        C242   1.285       .  A
O240        H250   0.990       .  S
O241        H254   0.990       .  S
C242       C4489   1.491       .  S
Zr265       O266   2.442       .  S
Zr265       O267   2.438       .  S
Zr265       O268   2.460       .  S
Zr265       O271   2.445       .  S
Zr265       O273   2.386       .  S
Zr265       O274   2.387       .  S
Zr265       O275   2.407       .  S
Zr265       O276   2.403       .  S
O266        H322   0.991       .  S
O266        H330   0.990       .  S
O267        C287   1.283       .  A
O268        C289   1.289       .  A
O269       Zr279   2.416       .  S
O269        C288   1.282       .  A
O270       Zr278   2.434       .  S
O270        C289   1.286       .  A
O271        C288   1.287       .  A
O272       Zr280   2.425       .  S
O272        C287   1.282       .  A
O273       Zr278   2.403       .  S
O273       Zr280   2.381       .  S
O274       Zr279   2.389       .  S
O274       Zr280   2.371       .  S
O274        H309   0.966       .  S
O275       Zr278   2.407       .  S
O275       Zr295   2.383       .  S
O275        H312   0.964       .  S
O276       Zr279   2.401       .  S
O276       Zr295   2.389       .  S
Zr277       O302   2.439   1_455  S
Zr277       O296   2.446   1_455  S
Zr277       O304   2.442       .  S
Zr277       O292   2.438   1_455  S
Zr277       O283   2.413       .  S
Zr277       O284   2.415       .  S
Zr277       O285   2.377       .  S
Zr277       O286   2.381       .  S
Zr278       O297   2.436       .  S
Zr278       O290   2.435   1_556  S
Zr278       O291   2.446   1_455  S
Zr278       O284   2.400       .  S
Zr278       O285   2.392       .  S
Zr279       O281   2.436       .  S
Zr279       O303   2.437       .  S
Zr279       O305   2.436       .  S
Zr279       O283   2.383       .  S
Zr279       O286   2.393       .  S
Zr280       O306   2.437       .  S
Zr280       O307   2.436       .  S
Zr280       O282   2.436       .  S
Zr280       O283   2.407       .  S
Zr280       O284   2.394       .  S
O281        H318   0.991       .  S
O282        H313   0.991       .  S
O282        H327   0.990       .  S
O284        H310   0.964       .  S
O285       Zr295   2.378       .  S
O286       Zr295   2.366       .  S
O286        H311   0.964       .  S
C287       C4393   1.478       .  S
C288       C4465   1.486       .  S
C289       C4452   1.493   1_556  S
O290        H326   0.990       .  S
O291        C293   1.287       .  A
O292        C293   1.286       .  A
C293       C4417   1.491       .  S
O294       Zr295   2.434       .  S
O294        H323   0.990       .  S
Zr295       O298   2.435       .  S
Zr295       O299   2.436       .  S
Zr295       O300   2.417       .  S
O296        C301   1.286       .  A
O297        H314   0.990       .  S
O297        H329   0.990       .  S
O298        H315   0.990       .  S
O299        H319   0.990       .  S
O299        H328   0.990       .  S
O300        C301   1.281   1_455  A
C301       C4644   1.481       .  S
O302        H321   0.990       .  S
O302        H325   0.991       .  S
O303        H317   0.990       .  S
O303        H324   0.990       .  S
O304        C308   1.287       .  A
O305        C308   1.285       .  A
O306        H316   0.991       .  S
O307        H320   0.991       .  S
C308       C4705   1.486       .  S
Zr331       O332   2.441       .  S
Zr331       O333   2.440       .  S
Zr331       O334   2.448       .  S
Zr331       O337   2.443       .  S
Zr331       O339   2.387       .  S
Zr331       O340   2.383       .  S
Zr331       O341   2.408       .  S
Zr331       O342   2.409       .  S
O332        H388   0.990       .  S
O332        H396   0.990       .  S
O333        C353   1.285       .  A
O334        C355   1.287       .  A
O335       Zr345   2.408       .  S
O335        C354   1.281       .  A
O336       Zr344   2.448       .  S
O336        C355   1.288       .  A
O337        C354   1.287       .  A
O338       Zr346   2.429       .  S
O338        C353   1.284       .  A
O339       Zr344   2.402       .  S
O339       Zr346   2.384       .  S
O340       Zr345   2.383       .  S
O340       Zr346   2.374       .  S
O340        H375   0.965       .  S
O341       Zr344   2.405       .  S
O341       Zr361   2.389       .  S
O341        H378   0.964       .  S
O342       Zr345   2.390       .  S
O342       Zr361   2.396       .  S
Zr343       O368   2.438       .  S
Zr343       O362   2.434       .  S
Zr343       O370   2.455       .  S
Zr343       O358   2.423       .  S
Zr343       O349   2.402       .  S
Zr343       O350   2.414       .  S
Zr343       O351   2.381       .  S
Zr343       O352   2.380       .  S
Zr344       O363   2.436       .  S
Zr344       O356   2.435       .  S
Zr344       O357   2.453       .  S
Zr344       O350   2.404       .  S
Zr344       O351   2.392       .  S
Zr345       O347   2.435       .  S
Zr345       O369   2.433       .  S
Zr345       O371   2.411       .  S
Zr345       O349   2.383       .  S
Zr345       O352   2.389       .  S
Zr346       O372   2.436       .  S
Zr346       O373   2.437       .  S
Zr346       O348   2.437       .  S
Zr346       O349   2.399       .  S
Zr346       O350   2.393       .  S
O347        H384   0.989       .  S
O348        H379   0.990       .  S
O348        H393   0.990       .  S
O350        H376   0.965       .  S
O351       Zr361   2.373       .  S
O352       Zr361   2.373       .  S
O352        H377   0.969       .  S
C353       C4332   1.489       .  S
C354       C4369   1.481       .  S
C355       C4441   1.493       .  S
O356        H392   0.990       .  S
O357        C359   1.289       .  A
O358        C359   1.284       .  A
C359       C4356   1.479       .  S
O360       Zr361   2.435       .  S
O360        H389   0.990       .  S
Zr361       O364   2.437       .  S
Zr361       O365   2.438       .  S
Zr361       O366   2.421       .  S
O362        C367   1.283       .  A
O363        H380   0.990       .  S
O363        H395   0.990       .  S
O364        H381   0.990       .  S
O365        H385   0.990       .  S
O365        H394   0.989       .  S
O366        C367   1.281       .  A
C367       C4932   1.467       .  S
O368        H387   0.990       .  S
O368        H391   0.990       .  S
O369        H383   0.990       .  S
O369        H390   0.990       .  S
O370        C374   1.289       .  A
O371        C374   1.281       .  A
O372        H382   0.990       .  S
O373        H386   0.990       .  S
C374       C4500   1.486       .  S
Zr397       O398   2.442       .  S
Zr397       O399   2.426       .  S
Zr397       O400   2.461       .  S
Zr397       O403   2.443       .  S
Zr397       O405   2.377       .  S
Zr397       O406   2.398       .  S
Zr397       O407   2.405       .  S
Zr397       O408   2.392       .  S
O398        H454   0.990       .  S
O398        H462   0.991       .  S
O399        C419   1.283       .  A
O400        C421   1.287       .  A
O401       Zr411   2.447       .  S
O401        C420   1.288       .  A
O402       Zr410   2.412       .  S
O402        C421   1.281       .  A
O403        C420   1.287       .  A
O404       Zr412   2.428       .  S
O404        C419   1.282       .  A
O405       Zr410   2.384       .  S
O405       Zr412   2.377       .  S
O406       Zr411   2.406       .  S
O406       Zr412   2.390       .  S
O406        H441   0.966       .  S
O407       Zr410   2.396       .  S
O407       Zr427   2.395       .  S
O407        H444   0.966       .  S
O408       Zr411   2.384       .  S
O408       Zr427   2.376       .  S
Zr409       O434   2.441       .  S
Zr409       O428   2.457       .  S
Zr409       O436   2.418       .  S
Zr409       O424   2.457       .  S
Zr409       O415   2.409       .  S
Zr409       O416   2.412       .  S
Zr409       O417   2.376       .  S
Zr409       O418   2.383       .  S
Zr410       O429   2.437       .  S
Zr410       O422   2.437       .  S
Zr410       O423   2.402       .  S
Zr410       O416   2.396       .  S
Zr410       O417   2.393       .  S
Zr411       O413   2.436       .  S
Zr411       O435   2.437       .  S
Zr411       O437   2.448       .  S
Zr411       O415   2.389       .  S
Zr411       O418   2.391       .  S
Zr412       O438   2.438       .  S
Zr412       O439   2.439       .  S
Zr412       O414   2.441       .  S
Zr412       O415   2.392       .  S
Zr412       O416   2.406       .  S
O413        H450   0.990       .  S
O414        H445   0.990       .  S
O414        H459   0.991       .  S
O416        H442   0.969       .  S
O417       Zr427   2.379       .  S
O418       Zr427   2.380       .  S
O418        H443   0.966       .  S
C419       C4236   1.485       .  S
C420       C4284   1.494       .  S
C421       C4297   1.488       .  S
O422        H458   0.990       .  S
O423        C425   1.279       .  A
O424        C425   1.287       .  A
C425       C4201   1.484       .  S
O426       Zr427   2.439       .  S
O426        H455   0.990       .  S
Zr427       O430   2.436       .  S
Zr427       O431   2.440       .  S
Zr427       O432   2.407       .  S
O428        C433   1.286       .  A
O429        H446   0.990       .  S
O429        H461   0.990       .  S
O430        H447   0.991       .  S
O431        H451   0.990       .  S
O431        H460   0.990       .  S
O432        C433   1.280       .  A
C433       C4260   1.477       .  S
O434        H453   0.990       .  S
O434        H457   0.991       .  S
O435        H449   0.991       .  S
O435        H456   0.989       .  S
O436        C440   1.283       .  A
O437        C440   1.288       .  A
O438        H448   0.990       .  S
O439        H452   0.990       .  S
C440       C4524   1.484       .  S
Zr463       O464   2.441       .  S
Zr463       O465   2.433       .  S
Zr463       O466   2.445       .  S
Zr463       O469   2.425       .  S
Zr463       O471   2.375       .  S
Zr463       O472   2.387       .  S
Zr463       O473   2.404       .  S
Zr463       O474   2.399       .  S
O464        H520   0.990       .  S
O464        H528   0.990       .  S
O465        C485   1.284       .  A
O466        C487   1.286       .  A
O467       Zr477   2.460       .  S
O467        C486   1.290       .  A
O468       Zr476   2.390       .  S
O468        C487   1.277       .  A
O469        C486   1.284       .  A
O470       Zr478   2.435       .  S
O470        C485   1.285       .  A
O471       Zr476   2.388       .  S
O471       Zr478   2.374       .  S
O472       Zr477   2.395       .  S
O472       Zr478   2.382       .  S
O472        H507   0.967       .  S
O473       Zr476   2.396       .  S
O473       Zr493   2.398       .  S
O473        H510   0.965       .  S
O474       Zr477   2.391       .  S
O474       Zr493   2.386       .  S
Zr475       O500   2.447   1_455  S
Zr475       O494   2.439   1_455  S
Zr475       O502   2.418   1_455  S
Zr475       O490   2.472       .  S
Zr475       O481   2.411       .  S
Zr475       O482   2.403       .  S
Zr475       O483   2.375       .  S
Zr475       O484   2.395       .  S
Zr476       O495   2.438       .  S
Zr476       O488   2.437       .  S
Zr476       O489   2.395       .  S
Zr476       O482   2.388       .  S
Zr476       O483   2.385       .  S
Zr477       O479   2.435       .  S
Zr477       O501   2.436       .  S
Zr477       O503   2.457   1_455  S
Zr477       O481   2.396       .  S
Zr477       O484   2.396       .  S
Zr478       O504   2.435       .  S
Zr478       O505   2.436       .  S
Zr478       O480   2.437       .  S
Zr478       O481   2.395       .  S
Zr478       O482   2.407       .  S
O479        H516   0.990       .  S
O480        H511   0.990       .  S
O480        H525   0.989       .  S
O482        H508   0.969       .  S
O483       Zr493   2.375       .  S
O484       Zr493   2.375       .  S
O484        H509   0.967       .  S
C485       C4105   1.490       .  S
C486       C4273   1.489       .  S
C487       C4153   1.475       .  S
O488        H524   0.990       .  S
O489        C491   1.278       .  A
O490        C491   1.290       .  A
C491       C4081   1.491       .  S
O492       Zr493   2.435       .  S
O492        H521   0.990       .  S
Zr493       O496   2.435       .  S
Zr493       O497   2.439       .  S
Zr493       O498   2.420       .  S
O494        C499   1.285       .  A
O495        H512   0.991       .  S
O495        H527   0.990       .  S
O496        H513   0.990       .  S
O497        H517   0.990       .  S
O497        H526   0.990       .  S
O498        C499   1.281   1_455  A
C499       C4188   1.469       .  S
O500        H519   0.990       .  S
O500        H523   0.989       .  S
O501        H515   0.990       .  S
O501        H522   0.990       .  S
O502        C506   1.284       .  A
O503        C506   1.290       .  A
O504        H514   0.990       .  S
O505        H518   0.990       .  S
C506       C4129   1.490       .  S
Zr529       O530   2.442       .  S
Zr529       O531   2.440       .  S
Zr529       O532   2.472       .  S
Zr529       O535   2.445       .  S
Zr529       O537   2.379       .  S
Zr529       O538   2.400       .  S
Zr529       O539   2.404       .  S
Zr529       O540   2.404       .  S
O530        H586   0.990       .  S
O530        H594   0.991       .  S
O531        C551   1.285       .  A
O532        C553   1.290       .  A
O533       Zr543   2.443       .  S
O533        C552   1.288       .  A
O534       Zr542   2.399       .  S
O534        C553   1.279       .  A
O535        C552   1.288       .  A
O536       Zr544   2.432       .  S
O536        C551   1.283       .  A
O537       Zr542   2.391       .  S
O537       Zr544   2.375       .  S
O538       Zr543   2.409       .  S
O538       Zr544   2.382       .  S
O538        H573   0.969       .  S
O539       Zr542   2.399       .  S
O539       Zr559   2.397       .  S
O539        H576   0.965       .  S
O540       Zr543   2.400       .  S
O540       Zr559   2.383       .  S
Zr541       O566   2.439       .  S
Zr541       O560   2.448       .  S
Zr541       O568   2.411       .  S
Zr541       O556   2.444       .  S
Zr541       O547   2.406       .  S
Zr541       O548   2.404       .  S
Zr541       O549   2.376       .  S
Zr541       O550   2.381       .  S
Zr542       O561   2.436       .  S
Zr542       O554   2.434       .  S
Zr542       O555   2.414       .  S
Zr542       O548   2.388       .  S
Zr542       O549   2.389       .  S
Zr543       O545   2.435       .  S
Zr543       O567   2.436       .  S
Zr543       O569   2.479       .  S
Zr543       O547   2.387       .  S
Zr543       O550   2.384       .  S
Zr544       O570   2.435       .  S
Zr544       O571   2.434       .  S
Zr544       O546   2.437       .  S
Zr544       O547   2.398       .  S
Zr544       O548   2.405       .  S
O545        H582   0.990       .  S
O546        H577   0.990       .  S
O546        H591   0.989       .  S
O548        H574   0.968       .  S
O549       Zr559   2.373       .  S
O550       Zr559   2.378       .  S
O550        H575   0.965       .  S
C551       C4020   1.491       .  S
C552       C4057   1.491       .  S
C553       C4044   1.489       .  S
O554        H590   0.990       .  S
O555        C557   1.281       .  A
O556        C557   1.287       .  A
C557       C3985   1.483       .  S
O558       Zr559   2.436       .  S
O558        H587   0.990       .  S
Zr559       O562   2.437       .  S
Zr559       O563   2.439       .  S
Zr559       O564   2.418       .  S
O560        C565   1.286       .  A
O561        H578   0.990       .  S
O561        H593   0.990       .  S
O562        H579   0.990       .  S
O563        H583   0.990       .  S
O563        H592   0.990       .  S
O564        C565   1.282       .  A
C565       C4249   1.483       .  S
O566        H585   0.990       .  S
O566        H589   0.990       .  S
O567        H581   0.990       .  S
O567        H588   0.990       .  S
O568        C572   1.282       .  A
O569        C572   1.293       .  A
O570        H580   0.990       .  S
O571        H584   0.990       .  S
C572       C4585   1.498       .  S
Zr595       O596   2.440       .  S
Zr595       O597   2.439       .  S
Zr595       O598   2.466       .  S
Zr595       O601   2.429       .  S
Zr595       O603   2.378       .  S
Zr595       O604   2.393       .  S
Zr595       O605   2.408       .  S
Zr595       O606   2.410       .  S
O596        H652   0.990       .  S
O596        H660   0.990       .  S
O597        C617   1.285       .  A
O598        C619   1.288       .  A
O599       Zr609   2.441       .  S
O599        C618   1.287       .  A
O600       Zr608   2.402       .  S
O600        C619   1.279       .  A
O601        C618   1.284       .  A
O602       Zr610   2.447       .  S
O602        C617   1.286       .  A
O603       Zr608   2.390       .  S
O603       Zr610   2.374       .  S
O604       Zr609   2.401       .  S
O604       Zr610   2.380       .  S
O604        H639   0.963       .  S
O605       Zr608   2.387       .  S
O605       Zr625   2.395       .  S
O605        H642   0.965       .  S
O606       Zr609   2.394       .  S
O606       Zr625   2.384       .  S
Zr607       O632   2.442       .  S
Zr607       O626   2.456       .  S
Zr607       O634   2.432       .  S
Zr607       O622   2.465       .  S
Zr607       O613   2.414       .  S
Zr607       O614   2.412       .  S
Zr607       O615   2.380       .  S
Zr607       O616   2.392       .  S
Zr608       O627   2.436       .  S
Zr608       O620   2.435       .  S
Zr608       O621   2.392       .  S
Zr608       O614   2.393       .  S
Zr608       O615   2.391       .  S
Zr609       O611   2.438       .  S
Zr609       O633   2.435   1_554  S
Zr609       O635   2.448       .  S
Zr609       O613   2.399       .  S
Zr609       O616   2.391       .  S
Zr610       O636   2.437       .  S
Zr610       O637   2.436       .  S
Zr610       O612   2.436       .  S
Zr610       O613   2.401       .  S
Zr610       O614   2.412       .  S
O611        H648   0.990       .  S
O612        H643   0.990       .  S
O612        H657   0.989       .  S
O614        H640   0.966       .  S
O615       Zr625   2.376       .  S
O616       Zr625   2.381       .  S
O616        H641   0.965       .  S
C617       C3889   1.496       .  S
C618       C4068   1.483   1_554  S
C619       C3948   1.481       .  S
O620        H656   0.991       .  S
O621        C623   1.278       .  A
O622        C623   1.290       .  A
C623       C4092   1.487       .  S
O624       Zr625   2.435       .  S
O624        H653   0.990       .  S
Zr625       O628   2.435       .  S
Zr625       O629   2.438       .  S
Zr625       O630   2.414       .  S
O626        C631   1.287       .  A
O627        H644   0.990       .  S
O627        H659   0.990       .  S
O628        H645   0.989       .  S
O629        H649   0.990       .  S
O629        H658   0.990       .  S
O630        C631   1.282       .  A
C631       C3961   1.489       .  S
O632        H651   0.991   1_655  S
O632        H655   0.990       .  S
O633        H647   0.990       .  S
O633        H654   0.990       .  S
O634        C638   1.284       .  A
O635        C638   1.287       .  A
O636        H646   0.990       .  S
O637        H650   0.990       .  S
C638       C3924   1.483   1_655  S
Zr661       O662   2.442       .  S
Zr661       O663   2.430       .  S
Zr661       O664   2.457       .  S
Zr661       O667   2.426       .  S
Zr661       O669   2.372       .  S
Zr661       O670   2.391       .  S
Zr661       O671   2.402       .  S
Zr661       O672   2.398       .  S
O662        H718   0.990       .  S
O662        H726   0.990       .  S
O663        C683   1.283       .  A
O664        C685   1.287       .  A
O665       Zr675   2.442       .  S
O665        C684   1.287       .  A
O666       Zr674   2.410       .  S
O666        C685   1.280       .  A
O667        C684   1.284       .  A
O668       Zr676   2.430       .  S
O668        C683   1.283       .  A
O669       Zr674   2.387       .  S
O669       Zr676   2.379       .  S
O670       Zr675   2.402       .  S
O670       Zr676   2.376       .  S
O670        H705   0.967       .  S
O671       Zr674   2.397       .  S
O671       Zr691   2.394       .  S
O671        H708   0.966       .  S
O672       Zr675   2.393       .  S
O672       Zr691   2.378       .  S
Zr673       O698   2.440       .  S
Zr673       O692   2.464       .  S
Zr673       O700   2.431       .  S
Zr673       O688   2.451       .  S
Zr673       O679   2.410       .  S
Zr673       O680   2.412       .  S
Zr673       O681   2.379       .  S
Zr673       O682   2.386       .  S
Zr674       O693   2.437       .  S
Zr674       O686   2.435       .  S
Zr674       O687   2.408       .  S
Zr674       O680   2.392       .  S
Zr674       O681   2.393       .  S
Zr675       O677   2.436       .  S
Zr675       O699   2.440       .  S
Zr675       O701   2.459       .  S
Zr675       O679   2.392       .  S
Zr675       O682   2.394       .  S
Zr676       O702   2.436       .  S
Zr676       O703   2.436       .  S
Zr676       O678   2.436       .  S
Zr676       O679   2.395       .  S
Zr676       O680   2.409       .  S
O677        H714   0.990       .  S
O678        H709   0.990       .  S
O678        H723   0.990       .  S
O680        H706   0.969       .  S
O681       Zr691   2.371       .  S
O682       Zr691   2.379       .  S
O682        H707   0.966       .  S
C683       C4345   1.488       .  S
C684       C3865   1.479       .  S
C685       C4692   1.487       .  S
O686        H722   0.990       .  S
O687        C689   1.280       .  A
O688        C689   1.288       .  A
C689       C4212   1.484       .  S
O690       Zr691   2.434       .  S
O690        H719   0.990       .  S
Zr691       O694   2.435       .  S
Zr691       O695   2.438       .  S
Zr691       O696   2.407       .  S
O692        C697   1.289       .  A
O693        H710   0.990       .  S
O693        H725   0.991       .  S
O694        H711   0.990       .  S
O695        H715   0.990       .  S
O695        H724   0.990       .  S
O696        C697   1.280       .  A
C697       C3972   1.482       .  S
O698        H717   0.990       .  S
O698        H721   0.991       .  S
O699        H713   0.990       .  S
O699        H720   0.990       .  S
O700        C704   1.285       .  A
O701        C704   1.290       .  A
O702        H712   0.990       .  S
O703        H716   0.990       .  S
C704       C3852   1.494       .  S
Zr727       O728   2.440       .  S
Zr727       O729   2.436       .  S
Zr727       O730   2.449       .  S
Zr727       O733   2.432       .  S
Zr727       O735   2.378       .  S
Zr727       O736   2.389       .  S
Zr727       O737   2.406       .  S
Zr727       O738   2.400       .  S
O728        H784   0.990       .  S
O728        H792   0.990       .  S
O729        C749   1.284       .  A
O730        C751   1.287       .  A
O731       Zr741   2.436       .  S
O731        C750   1.286       .  A
O732       Zr740   2.416       .  S
O732        C751   1.282       .  A
O733        C750   1.285       .  A
O734       Zr742   2.429       .  S
O734        C749   1.284       .  A
O735       Zr740   2.385       .  S
O735       Zr742   2.369       .  S
O736       Zr741   2.393       .  S
O736       Zr742   2.381       .  S
O736        H771   0.965       .  S
O737       Zr740   2.395       .  S
O737       Zr757   2.397       .  S
O737        H774   0.966       .  S
O738       Zr741   2.395       .  S
O738       Zr757   2.384       .  S
Zr739       O764   2.440       .  S
Zr739       O758   2.459       .  S
Zr739       O766   2.445       .  S
Zr739       O754   2.455       .  S
Zr739       O745   2.410       .  S
Zr739       O746   2.417       .  S
Zr739       O747   2.381       .  S
Zr739       O748   2.387       .  S
Zr740       O759   2.437       .  S
Zr740       O752   2.434       .  S
Zr740       O753   2.414       .  S
Zr740       O746   2.394       .  S
Zr740       O747   2.389       .  S
Zr741       O743   2.436       .  S
Zr741       O765   2.436       .  S
Zr741       O767   2.440       .  S
Zr741       O745   2.388       .  S
Zr741       O748   2.398       .  S
Zr742       O768   2.435       .  S
Zr742       O769   2.436       .  S
Zr742       O744   2.438       .  S
Zr742       O745   2.399       .  S
Zr742       O746   2.405       .  S
O743        H780   0.990       .  S
O744        H775   0.989       .  S
O744        H789   0.991       .  S
O746        H772   0.968       .  S
O747       Zr757   2.369       .  S
O748       Zr757   2.386       .  S
O748        H773   0.966       .  S
C749       C4873   1.488       .  S
C750       C3876   1.486       .  S
C751       C4572   1.486       .  S
O752        H788   0.989       .  S
O753        C755   1.282       .  A
O754        C755   1.289       .  A
C755       C3996   1.489       .  S
O756       Zr757   2.435       .  S
O756        H785   0.990       .  S
Zr757       O760   2.437       .  S
Zr757       O761   2.437       .  S
Zr757       O762   2.404       .  S
O758        C763   1.288       .  A
O759        H776   0.990       .  S
O759        H791   0.991       .  S
O760        H777   0.990       .  S
O761        H781   0.990       .  S
O761        H790   0.990       .  S
O762        C763   1.278       .  A
C763       C4177   1.478       .  S
O764        H783   0.991       .  S
O764        H787   0.990       .  S
O765        H779   0.990       .  S
O765        H786   0.990       .  S
O766        C770   1.287       .  A
O767        C770   1.286       .  A
O768        H778   0.990       .  S
O769        H782   0.991       .  S
C770       C3817   1.495       .  S
Zr793       O794   2.439       .  S
Zr793       O795   2.428       .  S
Zr793       O796   2.438       .  S
Zr793       O799   2.449       .  S
Zr793       O801   2.383       .  S
Zr793       O802   2.381       .  S
Zr793       O803   2.398       .  S
Zr793       O804   2.403       .  S
O794        H850   0.990       .  S
O794        H858   0.990       .  S
O795        C815   1.284       .  A
O796        C817   1.287       .  A
O797       Zr807   2.424       .  S
O797        C816   1.283       .  A
O798       Zr806   2.449       .  S
O798        C817   1.288       .  A
O799        C816   1.286       .  A
O800       Zr808   2.443       .  S
O800        C815   1.286       .  A
O801       Zr806   2.395       .  S
O801       Zr808   2.381       .  S
O802       Zr807   2.386       .  S
O802       Zr808   2.369       .  S
O802        H837   0.967       .  S
O803       Zr806   2.399       .  S
O803       Zr823   2.381       .  S
O803        H840   0.966       .  S
O804       Zr807   2.393       .  S
O804       Zr823   2.396       .  S
Zr805       O830   2.439       .  S
Zr805       O824   2.453       .  S
Zr805       O832   2.462       .  S
Zr805       O820   2.461       .  S
Zr805       O811   2.420       .  S
Zr805       O812   2.416       .  S
Zr805       O813   2.384       .  S
Zr805       O814   2.382       .  S
Zr806       O825   2.437       .  S
Zr806       O818   2.434       .  S
Zr806       O819   2.446       .  S
Zr806       O812   2.405       .  S
Zr806       O813   2.397       .  S
Zr807       O809   2.439       .  S
Zr807       O831   2.439       .  S
Zr807       O833   2.414       .  S
Zr807       O811   2.397       .  S
Zr807       O814   2.392       .  S
Zr808       O834   2.440       .  S
Zr808       O835   2.440       .  S
Zr808       O810   2.438       .  S
Zr808       O811   2.411       .  S
Zr808       O812   2.399       .  S
O809        H846   0.990       .  S
O810        H841   0.990       .  S
O810        H855   0.990       .  S
O812        H838   0.962       .  S
O813       Zr823   2.384       .  S
O814       Zr823   2.367       .  S
O814        H839   0.967       .  S
C815       C3828   1.489       .  S
C816       C3937   1.481       .  S
C817       C3769   1.486       .  S
O818        H854   0.990       .  S
O819        C821   1.288       .  A
O820        C821   1.290       .  A
C821       C3756   1.494       .  S
O822       Zr823   2.438       .  S
O822        H851   0.990       .  S
Zr823       O826   2.441       .  S
Zr823       O827   2.439       .  S
Zr823       O828   2.406       .  S
O824        C829   1.286       .  A
O825        H842   0.990       .  S
O825        H857   0.990       .  S
O826        H843   0.990       .  S
O827        H847   0.990       .  S
O827        H856   0.990       .  S
O828        C829   1.280       .  A
C829       C3804   1.477       .  S
O830        H849   0.990       .  S
O830        H853   0.991       .  S
O831        H845   0.990       .  S
O831        H852   0.990       .  S
O832        C836   1.290       .  A
O833        C836   1.282       .  A
O834        H844   0.990       .  S
O835        H848   0.990       .  S
C836       C3732   1.487       .  S
Zr859       O860   2.441       .  S
Zr859       O861   2.446       .  S
Zr859       O862   2.450       .  S
Zr859       O865   2.449       .  S
Zr859       O867   2.393       .  S
Zr859       O868   2.386       .  S
Zr859       O869   2.416       .  S
Zr859       O870   2.404       .  S
O860        H916   0.990       .  S
O860        H924   0.990       .  S
O861        C881   1.285       .  A
O862        C883   1.287       .  A
O863       Zr873   2.408       .  S
O863        C882   1.281       .  A
O864       Zr872   2.444       .  S
O864        C883   1.288       .  A
O865        C882   1.287       .  A
O866       Zr874   2.423       .  S
O866        C881   1.282       .  A
O867       Zr872   2.410       .  S
O867       Zr874   2.386       .  S
O868       Zr873   2.398       .  S
O868       Zr874   2.376       .  S
O868        H903   0.968       .  S
O869       Zr872   2.409       .  S
O869       Zr889   2.381       .  S
O869        H906   0.971       .  S
O870       Zr873   2.392       .  S
O870       Zr889   2.394       .  S
Zr871       O896   2.437       .  S
Zr871       O890   2.433       .  S
Zr871       O898   2.452       .  S
Zr871       O886   2.426       .  S
Zr871       O877   2.403       .  S
Zr871       O878   2.413       .  S
Zr871       O879   2.388       .  S
Zr871       O880   2.378       .  S
Zr872       O891   2.437       .  S
Zr872       O884   2.435       .  S
Zr872       O885   2.462       .  S
Zr872       O878   2.402       .  S
Zr872       O879   2.391       .  S
Zr873       O875   2.436       .  S
Zr873       O897   2.435       .  S
Zr873       O899   2.429       .  S
Zr873       O877   2.387       .  S
Zr873       O880   2.380       .  S
Zr874       O900   2.434       .  S
Zr874       O901   2.436       .  S
Zr874       O876   2.438       .  S
Zr874       O877   2.404       .  S
Zr874       O878   2.380       .  S
O875        H912   0.990       .  S
O876        H907   0.990       .  S
O876        H921   0.989       .  S
O878        H904   0.964       .  S
O879       Zr889   2.376       .  S
O880       Zr889   2.362       .  S
O880        H905   0.966       .  S
C881       C4140   1.487       .  S
C882       C4033   1.485       .  S
C883       C3780   1.492       .  S
O884        H920   0.989       .  S
O885        C887   1.291       .  A
O886        C887   1.286       .  A
C887       C3673   1.486       .  S
O888       Zr889   2.435       .  S
O888        H917   0.990       .  S
Zr889       O892   2.436       .  S
Zr889       O893   2.439       .  S
Zr889       O894   2.421       .  S
O890        C895   1.283       .  A
O891        H908   0.990       .  S
O891        H923   0.991       .  S
O892        H909   0.989       .  S
O893        H913   0.990       .  S
O893        H922   0.989       .  S
O894        C895   1.283       .  A
C895       C3697   1.469       .  S
O896        H915   0.990       .  S
O896        H919   0.990       .  S
O897        H911   0.989       .  S
O897        H918   0.990       .  S
O898        C902   1.289       .  A
O899        C902   1.285       .  A
O900        H910   0.990       .  S
O901        H914   0.990       .  S
C902       C3649   1.490       .  S
Zr925       O926   2.443       .  S
Zr925       O927   2.447       .  S
Zr925       O928   2.440       .  S
Zr925       O931   2.453       .  S
Zr925       O933   2.387       .  S
Zr925       O934   2.383       .  S
Zr925       O935   2.413       .  S
Zr925       O936   2.407       .  S
O926        H982   0.991       .  S
O926        H990   0.991       .  S
O927        C947   1.286       .  A
O928        C949   1.285   1_556  A
O929       Zr939   2.413       .  S
O929        C948   1.282       .  A
O930       Zr938   2.461   1_554  S
O930        C949   1.290       .  A
O931        C948   1.288       .  A
O932       Zr940   2.442       .  S
O932        C947   1.285       .  A
O933       Zr938   2.402       .  S
O933       Zr940   2.383       .  S
O934       Zr939   2.396       .  S
O934       Zr940   2.375       .  S
O934        H969   0.967       .  S
O935       Zr938   2.408       .  S
O935       Zr955   2.372       .  S
O935        H972   0.962       .  S
O936       Zr939   2.387       .  S
O936       Zr955   2.395       .  S
Zr937       O962   2.439       .  S
Zr937       O956   2.447       .  S
Zr937       O964   2.456       .  S
Zr937       O952   2.434       .  S
Zr937       O943   2.408       .  S
Zr937       O944   2.420       .  S
Zr937       O945   2.388       .  S
Zr937       O946   2.378       .  S
Zr938       O957   2.437   1_556  S
Zr938       O950   2.435   1_556  S
Zr938       O951   2.472       .  S
Zr938       O944   2.405       .  S
Zr938       O945   2.401       .  S
Zr939       O941   2.435       .  S
Zr939       O963   2.435       .  S
Zr939       O965   2.417       .  S
Zr939       O943   2.387       .  S
Zr939       O946   2.387       .  S
Zr940       O966   2.435       .  S
Zr940       O967   2.435       .  S
Zr940       O942   2.441       .  S
Zr940       O943   2.405       .  S
Zr940       O944   2.402       .  S
O941        H978   0.990       .  S
O942        H973   0.990       .  S
O942        H987   0.989       .  S
O944        H970   0.966       .  S
O945       Zr955   2.379       .  S
O946       Zr955   2.369       .  S
O946        H971   0.967       .  S
C947       C3564   1.496       .  S
C948       C3625   1.486       .  S
C949       C3601   1.487       .  S
O950        H986   0.991       .  S
O951        C953   1.293       .  A
O952        C953   1.285       .  A
C953       C3900   1.499       .  S
O954       Zr955   2.436       .  S
O954        H983   0.991       .  S
Zr955       O958   2.437       .  S
Zr955       O959   2.440       .  S
Zr955       O960   2.408       .  S
O956        C961   1.285       .  A
O957        H974   0.990       .  S
O957        H989   0.990       .  S
O958        H975   0.991       .  S
O959        H979   0.990       .  S
O959        H988   0.989       .  S
O960        C961   1.279       .  A
C961       C3588   1.476       .  S
O962        H981   0.990       .  S
O962        H985   0.991       .  S
O963        H977   0.990       .  S
O963        H984   0.991       .  S
O964        C968   1.289       .  A
O965        C968   1.282       .  A
O966        H976   0.990       .  S
O967        H980   0.991       .  S
C968       C3660   1.488       .  S
Zr991       O992   2.441       .  S
Zr991       O993   2.423       .  S
Zr991       O994   2.447       .  S
Zr991       O997   2.444       .  S
Zr991       O999   2.386       .  S
Zr991      O1000   2.384       .  S
Zr991      O1001   2.409       .  S
Zr991      O1002   2.404       .  S
O992       H1048   0.991       .  S
O992       H1056   0.990       .  S
O993       C1013   1.282       .  A
O994       C1015   1.286       .  A
O995      Zr1005   2.399       .  S
O995       C1014   1.279       .  A
O996      Zr1004   2.437       .  S
O996       C1015   1.286       .  A
O997       C1014   1.287       .  A
O998      Zr1006   2.453       .  S
O998       C1013   1.287       .  A
O999      Zr1004   2.400       .  S
O999      Zr1006   2.378       .  S
O1000     Zr1005   2.392       .  S
O1000     Zr1006   2.367       .  S
O1000      H1035   0.964       .  S
O1001     Zr1004   2.402       .  S
O1001     Zr1021   2.380       .  S
O1001      H1038   0.974       .  S
O1002     Zr1005   2.398       .  S
O1002     Zr1021   2.390       .  S
Zr1003     O1028   2.438       .  S
Zr1003     O1022   2.446       .  S
Zr1003     O1030   2.457       .  S
Zr1003     O1018   2.436       .  S
Zr1003     O1009   2.409       .  S
Zr1003     O1010   2.421       .  S
Zr1003     O1011   2.385       .  S
Zr1003     O1012   2.378       .  S
Zr1004     O1023   2.437       .  S
Zr1004     O1016   2.438       .  S
Zr1004     O1017   2.447       .  S
Zr1004     O1010   2.402       .  S
Zr1004     O1011   2.388       .  S
Zr1005     O1007   2.435       .  S
Zr1005     O1029   2.440       .  S
Zr1005     O1031   2.409       .  S
Zr1005     O1009   2.382       .  S
Zr1005     O1012   2.388       .  S
Zr1006     O1032   2.437       .  S
Zr1006     O1033   2.436       .  S
Zr1006     O1008   2.437       .  S
Zr1006     O1009   2.410       .  S
Zr1006     O1010   2.402       .  S
O1007      H1044   0.989       .  S
O1008      H1039   0.990       .  S
O1008      H1053   0.990       .  S
O1010      H1036   0.964       .  S
O1011     Zr1021   2.378       .  S
O1012     Zr1021   2.370       .  S
O1012      H1037   0.963       .  S
C1013      C3516   1.491       .  S
C1014      C3529   1.476       .  S
C1015      C3612   1.484       .  S
O1016      H1052   0.990       .  S
O1017      C1019   1.289       .  A
O1018      C1019   1.286       .  A
C1019      C3492   1.492       .  S
O1020     Zr1021   2.437       .  S
O1020      H1049   0.990       .  S
Zr1021     O1024   2.435       .  S
Zr1021     O1025   2.437       .  S
Zr1021     O1026   2.404       .  S
O1022      C1027   1.284       .  A
O1023      H1040   0.990       .  S
O1023      H1055   0.991       .  S
O1024      H1041   0.990       .  S
O1025      H1045   0.990       .  S
O1025      H1054   0.990       .  S
O1026      C1027   1.279       .  A
C1027      C3793   1.476       .  S
O1028      H1047   0.990       .  S
O1028      H1051   0.991       .  S
O1029      H1043   0.990       .  S
O1029      H1050   0.989       .  S
O1030      C1034   1.288       .  A
O1031      C1034   1.280       .  A
O1032      H1042   0.990       .  S
O1033      H1046   0.990       .  S
C1034      C3457   1.479       .  S
Zr1057     O1058   2.443       .  S
Zr1057     O1059   2.426       .  S
Zr1057     O1060   2.444       .  S
Zr1057     O1063   2.447       .  S
Zr1057     O1065   2.390       .  S
Zr1057     O1066   2.383       .  S
Zr1057     O1067   2.412       .  S
Zr1057     O1068   2.399       .  S
O1058      H1114   0.991       .  S
O1058      H1122   0.990       .  S
O1059      C1079   1.283       .  A
O1060      C1081   1.286       .  A
O1061     Zr1071   2.404       .  S
O1061      C1080   1.280       .  A
O1062     Zr1070   2.440       .  S
O1062      C1081   1.287       .  A
O1063      C1080   1.288       .  A
O1064     Zr1072   2.432       .  S
O1064      C1079   1.284       .  A
O1065     Zr1070   2.402       .  S
O1065     Zr1072   2.382       .  S
O1066     Zr1071   2.383       .  S
O1066     Zr1072   2.367       .  S
O1066      H1101   0.966       .  S
O1067     Zr1070   2.408       .  S
O1067     Zr1087   2.387       .  S
O1067      H1104   0.966       .  S
O1068     Zr1071   2.388       .  S
O1068     Zr1087   2.383       .  S
Zr1069     O1094   2.439       .  S
Zr1069     O1088   2.453       .  S
Zr1069     O1096   2.462       .  S
Zr1069     O1084   2.437       .  S
Zr1069     O1075   2.410       .  S
Zr1069     O1076   2.417       .  S
Zr1069     O1077   2.386       .  S
Zr1069     O1078   2.383       .  S
Zr1070     O1089   2.437       .  S
Zr1070     O1082   2.435       .  S
Zr1070     O1083   2.461       .  S
Zr1070     O1076   2.398       .  S
Zr1070     O1077   2.394       .  S
Zr1071     O1073   2.435       .  S
Zr1071     O1095   2.436       .  S
Zr1071     O1097   2.400       .  S
Zr1071     O1075   2.384       .  S
Zr1071     O1078   2.388       .  S
Zr1072     O1098   2.435       .  S
Zr1072     O1099   2.434       .  S
Zr1072     O1074   2.437       .  S
Zr1072     O1075   2.403       .  S
Zr1072     O1076   2.393       .  S
O1073      H1110   0.990       .  S
O1074      H1105   0.990       .  S
O1074      H1119   0.990       .  S
O1076      H1102   0.965       .  S
O1077     Zr1087   2.386       .  S
O1078     Zr1087   2.366       .  S
O1078      H1103   0.966       .  S
C1079      C3361   1.486       .  S
C1080      C3420   1.481       .  S
C1081      C3433   1.490       .  S
O1082      H1118   0.990       .  S
O1083      C1085   1.290       .  A
O1084      C1085   1.286       .  A
C1085      C3385   1.495       .  S
O1086     Zr1087   2.438       .  S
O1086      H1115   0.990       .  S
Zr1087     O1090   2.436       .  S
Zr1087     O1091   2.437       .  S
Zr1087     O1092   2.406       .  S
O1088      C1093   1.287       .  A
O1089      H1106   0.990       .  S
O1089      H1121   0.990       .  S
O1090      H1107   0.991       .  S
O1091      H1111   0.990       .  S
O1091      H1120   0.990       .  S
O1092      C1093   1.281       .  A
C1093      C3708   1.488       .  S
O1094      H1113   0.991       .  S
O1094      H1117   0.990       .  S
O1095      H1109   0.990       .  S
O1095      H1116   0.990       .  S
O1096      C1100   1.290       .  A
O1097      C1100   1.280       .  A
O1098      H1108   0.990       .  S
O1099      H1112   0.990       .  S
C1100      C3468   1.485       .  S
Zr1123     O1124   2.440       .  S
Zr1123     O1125   2.439       .  S
Zr1123     O1126   2.433       .  S
Zr1123     O1129   2.435       .  S
Zr1123     O1131   2.383       .  S
Zr1123     O1132   2.377       .  S
Zr1123     O1133   2.401       .  S
Zr1123     O1134   2.399       .  S
O1124      H1180   0.990       .  S
O1124      H1188   0.991       .  S
O1125      C1145   1.285       .  A
O1126      C1147   1.285       .  A
O1127     Zr1137   2.410       .  S
O1127      C1146   1.281       .  A
O1128     Zr1136   2.447       .  S
O1128      C1147   1.288       .  A
O1129      C1146   1.286       .  A
O1130     Zr1138   2.441       .  S
O1130      C1145   1.286       .  A
O1131     Zr1136   2.397       .  S
O1131     Zr1138   2.372       .  S
O1132     Zr1137   2.387       .  S
O1132     Zr1138   2.372       .  S
O1132      H1167   0.966       .  S
O1133     Zr1136   2.402       .  S
O1133     Zr1153   2.387       .  S
O1133      H1170   0.963       .  S
O1134     Zr1137   2.385       .  S
O1134     Zr1153   2.391       .  S
Zr1135     O1160   2.438       .  S
Zr1135     O1154   2.459       .  S
Zr1135     O1162   2.468       .  S
Zr1135     O1150   2.435       .  S
Zr1135     O1141   2.410       .  S
Zr1135     O1142   2.423       .  S
Zr1135     O1143   2.380       .  S
Zr1135     O1144   2.378       .  S
Zr1136     O1155   2.437       .  S
Zr1136     O1148   2.434       .  S
Zr1136     O1149   2.452       .  S
Zr1136     O1142   2.406       .  S
Zr1136     O1143   2.387       .  S
Zr1137     O1139   2.437       .  S
Zr1137     O1161   2.438       .  S
Zr1137     O1163   2.406       .  S
Zr1137     O1141   2.384       .  S
Zr1137     O1144   2.388       .  S
Zr1138     O1164   2.438       .  S
Zr1138     O1165   2.437       .  S
Zr1138     O1140   2.438       .  S
Zr1138     O1141   2.409       .  S
Zr1138     O1142   2.402       .  S
O1139      H1176   0.989       .  S
O1140      H1171   0.990       .  S
O1140      H1185   0.991       .  S
O1142      H1168   0.966       .  S
O1143     Zr1153   2.372       .  S
O1144     Zr1153   2.377       .  S
O1144      H1169   0.968       .  S
C1145      C3324   1.491       .  S
C1146      C3337   1.479       .  S
C1147      C3444   1.486       .  S
O1148      H1184   0.990       .  S
O1149      C1151   1.289       .  A
O1150      C1151   1.286       .  A
C1151      C4009   1.486       .  S
O1152     Zr1153   2.437       .  S
O1152      H1181   0.990       .  S
Zr1153     O1156   2.442       .  S
Zr1153     O1157   2.438       .  S
Zr1153     O1158   2.410       .  S
O1154      C1159   1.288       .  A
O1155      H1172   0.990       .  S
O1155      H1187   0.990       .  S
O1156      H1173   0.990       .  S
O1157      H1177   0.990       .  S
O1157      H1186   0.989       .  S
O1158      C1159   1.281       .  A
C1159      C3577   1.482       .  S
O1160      H1179   0.990       .  S
O1160      H1183   0.990       .  S
O1161      H1175   0.990       .  S
O1161      H1182   0.990       .  S
O1162      C1166   1.292       .  A
O1163      C1166   1.280       .  A
O1164      H1174   0.989       .  S
O1165      H1178   0.990       .  S
C1166      C3721   1.490   1_556  S
Zr1189     O1190   2.441       .  S
Zr1189     O1191   2.423       .  S
Zr1189     O1192   2.441       .  S
Zr1189     O1195   2.432       .  S
Zr1189     O1197   2.375       .  S
Zr1189     O1198   2.387       .  S
Zr1189     O1199   2.407       .  S
Zr1189     O1200   2.392       .  S
O1190      H1246   0.990       .  S
O1190      H1254   0.990       .  S
O1191      C1211   1.282       .  A
O1192      C1213   1.284       .  A
O1193     Zr1203   2.442       .  S
O1193      C1212   1.287       .  A
O1194     Zr1202   2.408       .  S
O1194      C1213   1.280       .  A
O1195      C1212   1.285       .  A
O1196     Zr1204   2.458       .  S
O1196      C1211   1.288       .  A
O1197     Zr1202   2.387       .  S
O1197     Zr1204   2.372       .  S
O1198     Zr1203   2.397       .  S
O1198     Zr1204   2.378       .  S
O1198      H1233   0.967       .  S
O1199     Zr1202   2.398       .  S
O1199     Zr1219   2.402       .  S
O1199      H1236   0.967       .  S
O1200     Zr1203   2.395       .  S
O1200     Zr1219   2.377       .  S
Zr1201     O1226   2.438       .  S
Zr1201     O1220   2.458       .  S
Zr1201     O1228   2.415       .  S
Zr1201     O1216   2.449       .  S
Zr1201     O1207   2.421       .  S
Zr1201     O1208   2.411       .  S
Zr1201     O1209   2.378       .  S
Zr1201     O1210   2.385       .  S
Zr1202     O1221   2.439       .  S
Zr1202     O1214   2.435       .  S
Zr1202     O1215   2.409       .  S
Zr1202     O1208   2.386       .  S
Zr1202     O1209   2.390       .  S
Zr1203     O1205   2.435       .  S
Zr1203     O1227   2.436       .  S
Zr1203     O1229   2.459       .  S
Zr1203     O1207   2.392       .  S
Zr1203     O1210   2.393       .  S
Zr1204     O1230   2.436       .  S
Zr1204     O1231   2.436       .  S
Zr1204     O1206   2.438       .  S
Zr1204     O1207   2.411       .  S
Zr1204     O1208   2.416       .  S
O1205      H1242   0.990       .  S
O1206      H1237   0.990       .  S
O1206      H1251   0.990       .  S
O1208      H1234   0.969       .  S
O1209     Zr1219   2.378       .  S
O1210     Zr1219   2.376       .  S
O1210      H1235   0.967       .  S
C1211      C3745   1.497       .  S
C1212      C3265   1.485       .  S
C1213      C3409   1.478       .  S
O1214      H1250   0.990       .  S
O1215      C1217   1.281       .  A
O1216      C1217   1.288       .  A
C1217      C3217   1.485       .  S
O1218     Zr1219   2.435       .  S
O1218      H1247   0.990       .  S
Zr1219     O1222   2.435       .  S
Zr1219     O1223   2.440       .  S
Zr1219     O1224   2.419       .  S
O1220      C1225   1.288       .  A
O1221      H1238   0.990       .  S
O1221      H1253   0.989       .  S
O1222      H1239   0.989       .  S
O1223      H1243   0.990       .  S
O1223      H1252   0.990       .  S
O1224      C1225   1.283       .  A
C1225      C3289   1.492       .  S
O1226      H1245   0.990       .  S
O1226      H1249   0.990       .  S
O1227      H1241   0.989       .  S
O1227      H1248   0.991       .  S
O1228      C1232   1.282       .  A
O1229      C1232   1.290       .  A
O1230      H1240   0.990       .  S
O1231      H1244   0.990       .  S
C1232      C3252   1.488       .  S
Zr1255     O1256   2.442       .  S
Zr1255     O1257   2.442       .  S
Zr1255     O1258   2.446       .  S
Zr1255     O1261   2.430       .  S
Zr1255     O1263   2.377       .  S
Zr1255     O1264   2.389       .  S
Zr1255     O1265   2.404       .  S
Zr1255     O1266   2.401       .  S
O1256      H1312   0.990       .  S
O1256      H1320   0.991       .  S
O1257      C1277   1.286       .  A
O1258      C1279   1.286       .  A
O1259     Zr1269   2.440       .  S
O1259      C1278   1.287       .  A
O1260     Zr1268   2.405       .  S
O1260      C1279   1.280       .  A
O1261      C1278   1.285       .  A
O1262     Zr1270   2.443       .  S
O1262      C1277   1.286       .  A
O1263     Zr1268   2.388       .  S
O1263     Zr1270   2.376       .  S
O1264     Zr1269   2.395       .  S
O1264     Zr1270   2.379       .  S
O1264      H1299   0.966       .  S
O1265     Zr1268   2.394       .  S
O1265     Zr1285   2.395       .  S
O1265      H1302   0.966       .  S
O1266     Zr1269   2.396       .  S
O1266     Zr1285   2.386       .  S
Zr1267     O1292   2.438       .  S
Zr1267     O1286   2.456       .  S
Zr1267     O1294   2.435       .  S
Zr1267     O1282   2.451       .  S
Zr1267     O1273   2.412       .  S
Zr1267     O1274   2.409       .  S
Zr1267     O1275   2.379       .  S
Zr1267     O1276   2.387       .  S
Zr1268     O1287   2.437       .  S
Zr1268     O1280   2.436       .  S
Zr1268     O1281   2.410       .  S
Zr1268     O1274   2.383       .  S
Zr1268     O1275   2.390       .  S
Zr1269     O1271   2.435       .  S
Zr1269     O1293   2.436       .  S
Zr1269     O1295   2.450       .  S
Zr1269     O1273   2.391       .  S
Zr1269     O1276   2.390       .  S
Zr1270     O1296   2.435       .  S
Zr1270     O1297   2.435       .  S
Zr1270     O1272   2.438       .  S
Zr1270     O1273   2.403       .  S
Zr1270     O1274   2.408       .  S
O1271      H1308   0.990       .  S
O1272      H1303   0.990       .  S
O1272      H1317   0.990       .  S
O1274      H1300   0.968       .  S
O1275     Zr1285   2.374       .  S
O1276     Zr1285   2.380       .  S
O1276      H1301   0.966       .  S
C1277      C3481   1.496       .  S
C1278      C3276   1.482       .  S
C1279      C3348   1.480       .  S
O1280      H1316   0.990       .  S
O1281      C1283   1.281       .  A
O1282      C1283   1.289       .  A
C1283      C3180   1.486   1_554  S
O1284     Zr1285   2.436       .  S
O1284      H1313   0.990       .  S
Zr1285     O1288   2.437       .  S
Zr1285     O1289   2.437       .  S
Zr1285     O1290   2.422       .  S
O1286      C1291   1.288       .  A
O1287      H1304   0.990       .  S
O1287      H1319   0.990   1_554  S
O1288      H1305   0.990       .  S
O1289      H1309   0.990       .  S
O1289      H1318   0.990       .  S
O1290      C1291   1.282       .  A
C1291      C3193   1.478       .  S
O1292      H1311   0.990       .  S
O1292      H1315   0.990       .  S
O1293      H1307   0.990       .  S
O1293      H1314   0.990       .  S
O1294      C1298   1.287       .  A
O1295      C1298   1.288       .  A
O1296      H1306   0.990       .  S
O1297      H1310   0.990       .  S
C1298      C4321   1.495       .  S
Zr1321     O1322   2.441       .  S
Zr1321     O1323   2.416       .  S
Zr1321     O1324   2.454       .  S
Zr1321     O1327   2.425       .  S
Zr1321     O1329   2.377       .  S
Zr1321     O1330   2.391       .  S
Zr1321     O1331   2.395       .  S
Zr1321     O1332   2.398       .  S
O1322      H1378   0.990       .  S
O1322      H1386   0.991       .  S
O1323      C1343   1.282       .  A
O1324      C1345   1.288       .  A
O1325     Zr1335   2.436       .  S
O1325      C1344   1.286       .  A
O1326     Zr1334   2.411       .  S
O1326      C1345   1.281       .  A
O1327      C1344   1.285       .  A
O1328     Zr1336   2.453       .  S
O1328      C1343   1.288       .  A
O1329     Zr1334   2.383       .  S
O1329     Zr1336   2.374       .  S
O1330     Zr1335   2.395       .  S
O1330     Zr1336   2.375       .  S
O1330      H1365   0.965       .  S
O1331     Zr1334   2.386       .  S
O1331     Zr1351   2.392       .  S
O1331      H1368   0.966       .  S
O1332     Zr1335   2.392       .  S
O1332     Zr1351   2.378       .  S
Zr1333     O1358   2.440       .  S
Zr1333     O1352   2.461       .  S
Zr1333     O1360   2.434       .  S
Zr1333     O1348   2.471       .  S
Zr1333     O1339   2.413       .  S
Zr1333     O1340   2.418       .  S
Zr1333     O1341   2.377       .  S
Zr1333     O1342   2.389       .  S
Zr1334     O1353   2.437       .  S
Zr1334     O1346   2.436       .  S
Zr1334     O1347   2.407       .  S
Zr1334     O1340   2.392       .  S
Zr1334     O1341   2.390       .  S
Zr1335     O1337   2.436       .  S
Zr1335     O1359   2.437       .  S
Zr1335     O1361   2.451       .  S
Zr1335     O1339   2.391       .  S
Zr1335     O1342   2.390       .  S
Zr1336     O1362   2.437       .  S
Zr1336     O1363   2.436       .  S
Zr1336     O1338   2.437       .  S
Zr1336     O1339   2.399       .  S
Zr1336     O1340   2.416       .  S
O1337      H1374   0.990       .  S
O1338      H1369   0.990       .  S
O1338      H1383   0.990       .  S
O1340      H1366   0.969       .  S
O1341     Zr1351   2.378       .  S
O1342     Zr1351   2.380       .  S
O1342      H1367   0.966       .  S
C1343      C4764   1.489       .  S
C1344      C3145   1.477       .  S
C1345      C4380   1.486       .  S
O1346      H1382   0.990       .  S
O1347      C1349   1.280       .  A
O1348      C1349   1.292       .  A
C1349      C3108   1.492       .  S
O1350     Zr1351   2.435       .  S
O1350      H1379   0.990       .  S
Zr1351     O1354   2.434       .  S
Zr1351     O1355   2.436       .  S
Zr1351     O1356   2.410       .  S
O1352      C1357   1.288       .  A
O1353      H1370   0.990       .  S
O1353      H1385   0.990       .  S
O1354      H1371   0.989       .  S
O1355      H1375   0.990       .  S
O1355      H1384   0.990       .  S
O1356      C1357   1.281       .  A
C1357      C3300   1.477       .  S
O1358      H1377   0.991       .  S
O1358      H1381   0.990       .  S
O1359      H1373   0.990       .  S
O1359      H1380   0.990       .  S
O1360      C1364   1.286       .  A
O1361      C1364   1.288       .  A
O1362      H1372   0.990       .  S
O1363      H1376   0.990       .  S
C1364      C3121   1.492       .  S
Zr1387     O1388   2.441       .  S
Zr1387     O1389   2.439       .  S
Zr1387     O1390   2.462       .  S
Zr1387     O1393   2.444       .  S
Zr1387     O1395   2.382       .  S
Zr1387     O1396   2.396       .  S
Zr1387     O1397   2.411       .  S
Zr1387     O1398   2.396       .  S
O1388      H1444   0.990       .  S
O1388      H1452   0.990       .  S
O1389      C1409   1.284       .  A
O1390      C1411   1.289       .  A
O1391     Zr1401   2.440       .  S
O1391      C1410   1.286       .  A
O1392     Zr1400   2.408       .  S
O1392      C1411   1.281       .  A
O1393      C1410   1.288       .  A
O1394     Zr1402   2.432       .  S
O1394      C1409   1.284       .  A
O1395     Zr1400   2.394       .  S
O1395     Zr1402   2.377       .  S
O1396     Zr1401   2.399       .  S
O1396     Zr1402   2.384       .  S
O1396      H1431   0.965       .  S
O1397     Zr1400   2.396       .  S
O1397     Zr1417   2.397       .  S
O1397      H1434   0.965       .  S
O1398     Zr1401   2.391       .  S
O1398     Zr1417   2.377       .  S
Zr1399     O1424   2.442       .  S
Zr1399     O1418   2.456       .  S
Zr1399     O1426   2.422       .  S
Zr1399     O1414   2.444       .  S
Zr1399     O1405   2.418       .  S
Zr1399     O1406   2.405       .  S
Zr1399     O1407   2.375       .  S
Zr1399     O1408   2.384       .  S
Zr1400     O1419   2.437       .  S
Zr1400     O1412   2.434       .  S
Zr1400     O1413   2.415       .  S
Zr1400     O1406   2.385       .  S
Zr1400     O1407   2.383       .  S
Zr1401     O1403   2.438       .  S
Zr1401     O1425   2.437       .  S
Zr1401     O1427   2.447       .  S
Zr1401     O1405   2.393       .  S
Zr1401     O1408   2.387       .  S
Zr1402     O1428   2.437       .  S
Zr1402     O1429   2.438       .  S
Zr1402     O1404   2.438       .  S
Zr1402     O1405   2.408       .  S
Zr1402     O1406   2.405       .  S
O1403      H1440   0.990       .  S
O1404      H1435   0.990       .  S
O1404      H1449   0.990       .  S
O1406      H1432   0.968       .  S
O1407     Zr1417   2.367       .  S
O1408     Zr1417   2.381       .  S
O1408      H1433   0.966       .  S
C1409      C4548   1.492       .  S
C1410      C3156   1.485       .  S
C1411      C4476   1.487       .  S
O1412      H1448   0.989       .  S
O1413      C1415   1.283       .  A
O1414      C1415   1.288       .  A
C1415      C3169   1.486       .  S
O1416     Zr1417   2.436       .  S
O1416      H1445   0.990       .  S
Zr1417     O1420   2.435       .  S
Zr1417     O1421   2.438       .  S
Zr1417     O1422   2.413       .  S
O1418      C1423   1.288       .  A
O1419      H1436   0.990       .  S
O1419      H1451   0.990       .  S
O1420      H1437   0.990       .  S
O1421      H1441   0.990       .  S
O1421      H1450   0.990       .  S
O1422      C1423   1.282       .  A
C1423      C3073   1.482       .  S
O1424      H1443   0.989       .  S
O1424      H1447   0.990       .  S
O1425      H1439   0.990       .  S
O1425      H1446   0.990       .  S
O1426      C1430   1.283       .  A
O1427      C1430   1.287       .  A
O1428      H1438   0.990       .  S
O1429      H1442   0.989       .  S
C1430      C3372   1.488       .  S
Zr1453     O1454   2.442       .  S
Zr1453     O1455   2.437       .  S
Zr1453     O1456   2.451       .  S
Zr1453     O1459   2.432       .  S
Zr1453     O1461   2.379       .  S
Zr1453     O1462   2.390       .  S
Zr1453     O1463   2.403       .  S
Zr1453     O1464   2.401       .  S
O1454      H1510   0.990       .  S
O1454      H1518   0.991       .  S
O1455      C1475   1.286       .  A
O1456      C1477   1.287       .  A
O1457     Zr1467   2.443   1_556  S
O1457      C1476   1.287       .  A
O1458     Zr1466   2.399       .  S
O1458      C1477   1.279       .  A
O1459      C1476   1.286   1_554  A
O1460     Zr1468   2.449       .  S
O1460      C1475   1.287       .  A
O1461     Zr1466   2.390       .  S
O1461     Zr1468   2.375       .  S
O1462     Zr1467   2.388       .  S
O1462     Zr1468   2.377       .  S
O1462      H1497   0.965       .  S
O1463     Zr1466   2.389       .  S
O1463     Zr1483   2.397       .  S
O1463      H1500   0.966       .  S
O1464     Zr1467   2.390       .  S
O1464     Zr1483   2.381       .  S
Zr1465     O1490   2.438       .  S
Zr1465     O1484   2.459       .  S
Zr1465     O1492   2.429       .  S
Zr1465     O1480   2.470       .  S
Zr1465     O1471   2.418       .  S
Zr1465     O1472   2.410       .  S
Zr1465     O1473   2.374       .  S
Zr1465     O1474   2.389       .  S
Zr1466     O1485   2.437       .  S
Zr1466     O1478   2.435       .  S
Zr1466     O1479   2.409       .  S
Zr1466     O1472   2.388       .  S
Zr1466     O1473   2.383       .  S
Zr1467     O1469   2.438   1_554  S
Zr1467     O1491   2.436   1_554  S
Zr1467     O1493   2.437       .  S
Zr1467     O1471   2.396       .  S
Zr1467     O1474   2.386       .  S
Zr1468     O1494   2.436       .  S
Zr1468     O1495   2.434       .  S
Zr1468     O1470   2.436       .  S
Zr1468     O1471   2.400       .  S
Zr1468     O1472   2.416       .  S
O1469      H1506   0.990       .  S
O1470      H1501   0.990       .  S
O1470      H1515   0.990       .  S
O1472      H1498   0.969       .  S
O1473     Zr1483   2.374       .  S
O1474     Zr1483   2.376       .  S
O1474      H1499   0.965       .  S
C1475      C3012   1.494       .  S
C1476      C3025   1.485       .  S
C1477      C3060   1.481       .  S
O1478      H1514   0.990       .  S
O1479      C1481   1.281       .  A
O1480      C1481   1.291       .  A
C1481      C3097   1.493       .  S
O1482     Zr1483   2.435       .  S
O1482      H1511   0.990       .  S
Zr1483     O1486   2.435       .  S
Zr1483     O1487   2.436       .  S
Zr1483     O1488   2.412       .  S
O1484      C1489   1.288       .  A
O1485      H1502   0.991       .  S
O1485      H1517   0.990       .  S
O1486      H1503   0.991       .  S
O1487      H1507   0.990       .  S
O1487      H1516   0.990       .  S
O1488      C1489   1.281       .  A
C1489      C3204   1.481       .  S
O1490      H1509   0.990       .  S
O1490      H1513   0.990       .  S
O1491      H1505   0.990       .  S
O1491      H1512   0.990       .  S
O1492      C1496   1.286       .  A
O1493      C1496   1.286       .  A
O1494      H1504   0.990       .  S
O1495      H1508   0.990       .  S
C1496      C4404   1.486       .  S
Zr1519     O1520   2.442       .  S
Zr1519     O1521   2.455       .  S
Zr1519     O1522   2.460       .  S
Zr1519     O1525   2.452       .  S
Zr1519     O1527   2.378       .  S
Zr1519     O1528   2.395       .  S
Zr1519     O1529   2.414       .  S
Zr1519     O1530   2.406       .  S
O1520      H1576   0.991       .  S
O1520      H1584   0.991       .  S
O1521      C1541   1.287       .  A
O1522      C1543   1.287       .  A
O1523     Zr1533   2.427       .  S
O1523      C1542   1.285       .  A
O1524     Zr1532   2.411       .  S
O1524      C1543   1.281       .  A
O1525      C1542   1.289       .  A
O1526     Zr1534   2.434       .  S
O1526      C1541   1.284       .  A
O1527     Zr1532   2.390       .  S
O1527     Zr1534   2.375       .  S
O1528     Zr1533   2.407       .  S
O1528     Zr1534   2.381       .  S
O1528      H1563   0.967       .  S
O1529     Zr1532   2.399       .  S
O1529     Zr1549   2.404       .  S
O1529      H1566   0.966       .  S
O1530     Zr1533   2.399       .  S
O1530     Zr1549   2.386       .  S
Zr1531     O1556   2.440       .  S
Zr1531     O1550   2.441       .  S
Zr1531     O1558   2.426       .  S
Zr1531     O1546   2.432       .  S
Zr1531     O1537   2.408       .  S
Zr1531     O1538   2.413       .  S
Zr1531     O1539   2.373       .  S
Zr1531     O1540   2.378       .  S
Zr1532     O1551   2.437       .  S
Zr1532     O1544   2.437       .  S
Zr1532     O1545   2.417       .  S
Zr1532     O1538   2.392       .  S
Zr1532     O1539   2.381       .  S
Zr1533     O1535   2.436       .  S
Zr1533     O1557   2.436       .  S
Zr1533     O1559   2.464       .  S
Zr1533     O1537   2.383       .  S
Zr1533     O1540   2.387       .  S
Zr1534     O1560   2.435       .  S
Zr1534     O1561   2.436       .  S
Zr1534     O1536   2.437       .  S
Zr1534     O1537   2.402       .  S
Zr1534     O1538   2.408       .  S
O1535      H1572   0.990       .  S
O1536      H1567   0.990       .  S
O1536      H1581   0.990       .  S
O1538      H1564   0.968       .  S
O1539     Zr1549   2.362       .  S
O1540     Zr1549   2.379       .  S
O1540      H1565   0.966       .  S
C1541      C2964   1.492       .  S
C1542      C3036   1.486       .  S
C1543      C2977   1.486       .  S
O1544      H1580   0.990       .  S
O1545      C1547   1.282       .  A
O1546      C1547   1.285       .  A
C1547      C3228   1.478       .  S
O1548     Zr1549   2.435       .  S
O1548      H1577   0.990       .  S
Zr1549     O1552   2.436       .  S
Zr1549     O1553   2.437       .  S
Zr1549     O1554   2.432       .  S
O1550      C1555   1.285       .  A
O1551      H1568   0.991       .  S
O1551      H1583   0.990       .  S
O1552      H1569   0.990       .  S
O1553      H1573   0.990       .  S
O1553      H1582   0.990       .  S
O1554      C1555   1.284       .  A
C1555      C3084   1.475       .  S
O1556      H1575   0.990       .  S
O1556      H1579   0.990       .  S
O1557      H1571   0.990       .  S
O1557      H1578   0.990       .  S
O1558      C1562   1.285       .  A
O1559      C1562   1.291       .  A
O1560      H1570   0.990       .  S
O1561      H1574   0.990       .  S
C1562      C3313   1.497       .  S
Zr1585     O1586   2.443       .  S
Zr1585     O1587   2.432       .  S
Zr1585     O1588   2.442       .  S
Zr1585     O1591   2.414       .  S
Zr1585     O1593   2.374       .  S
Zr1585     O1594   2.387       .  S
Zr1585     O1595   2.407       .  S
Zr1585     O1596   2.399       .  S
O1586      H1642   0.991       .  S
O1586      H1650   0.990       .  S
O1587      C1607   1.282       .  A
O1588      C1609   1.284       .  A
O1589     Zr1599   2.451       .  S
O1589      C1608   1.288       .  A
O1590     Zr1598   2.416       .  S
O1590      C1609   1.282       .  A
O1591      C1608   1.282       .  A
O1592     Zr1600   2.445       .  S
O1592      C1607   1.285       .  A
O1593     Zr1598   2.385       .  S
O1593     Zr1600   2.371       .  S
O1594     Zr1599   2.396       .  S
O1594     Zr1600   2.381       .  S
O1594      H1629   0.964       .  S
O1595     Zr1598   2.394       .  S
O1595     Zr1615   2.399       .  S
O1595      H1632   0.966       .  S
O1596     Zr1599   2.389       .  S
O1596     Zr1615   2.386       .  S
Zr1597     O1622   2.439       .  S
Zr1597     O1616   2.464       .  S
Zr1597     O1624   2.438       .  S
Zr1597     O1612   2.467       .  S
Zr1597     O1603   2.414       .  S
Zr1597     O1604   2.424       .  S
Zr1597     O1605   2.383       .  S
Zr1597     O1606   2.390       .  S
Zr1598     O1617   2.438       .  S
Zr1598     O1610   2.434       .  S
Zr1598     O1611   2.409       .  S
Zr1598     O1604   2.395       .  S
Zr1598     O1605   2.395       .  S
Zr1599     O1601   2.435       .  S
Zr1599     O1623   2.435       .  S
Zr1599     O1625   2.445       .  S
Zr1599     O1603   2.389       .  S
Zr1599     O1606   2.390       .  S
Zr1600     O1626   2.435       .  S
Zr1600     O1627   2.435       .  S
Zr1600     O1602   2.436       .  S
Zr1600     O1603   2.402       .  S
Zr1600     O1604   2.415       .  S
O1601      H1638   0.990       .  S
O1602      H1633   0.991       .  S
O1602      H1647   0.990       .  S
O1604      H1630   0.969       .  S
O1605     Zr1615   2.368       .  S
O1606     Zr1615   2.385       .  S
O1606      H1631   0.965       .  S
C1607      C2868   1.490       .  S
C1608      C2892   1.478       .  S
C1609      C2940   1.482       .  S
O1610      H1646   0.991       .  S
O1611      C1613   1.281       .  A
O1612      C1613   1.290       .  A
C1613      C2844   1.490   1_554  S
O1614     Zr1615   2.436       .  S
O1614      H1643   0.990       .  S
Zr1615     O1618   2.435       .  S
Zr1615     O1619   2.438       .  S
Zr1615     O1620   2.418       .  S
O1616      C1621   1.288       .  A
O1617      H1634   0.990       .  S
O1617      H1649   0.991       .  S
O1618      H1635   0.990       .  S
O1619      H1639   0.991       .  S
O1619      H1648   0.990       .  S
O1620      C1621   1.281       .  A
C1621      C2905   1.480       .  S
O1622      H1641   0.990       .  S
O1622      H1645   0.990       .  S
O1623      H1637   0.990       .  S
O1623      H1644   0.990       .  S
O1624      C1628   1.287       .  A
O1625      C1628   1.288       .  A
O1626      H1636   0.990       .  S
O1627      H1640   0.990       .  S
C1628      C3505   1.493       .  S
Zr1651     O1652   2.442       .  S
Zr1651     O1653   2.443       .  S
Zr1651     O1654   2.457       .  S
Zr1651     O1657   2.433       .  S
Zr1651     O1659   2.382       .  S
Zr1651     O1660   2.392       .  S
Zr1651     O1661   2.411       .  S
Zr1651     O1662   2.403       .  S
O1652      H1708   0.990       .  S
O1652      H1716   0.990       .  S
O1653      C1673   1.285       .  A
O1654      C1675   1.286       .  A
O1655     Zr1665   2.433       .  S
O1655      C1674   1.284       .  A
O1656     Zr1664   2.405       .  S
O1656      C1675   1.279       .  A
O1657      C1674   1.285       .  A
O1658     Zr1666   2.434       .  S
O1658      C1673   1.285       .  A
O1659     Zr1664   2.388       .  S
O1659     Zr1666   2.375       .  S
O1660     Zr1665   2.398       .  S
O1660     Zr1666   2.383       .  S
O1660      H1695   0.964       .  S
O1661     Zr1664   2.402       .  S
O1661     Zr1681   2.395       .  S
O1661      H1698   0.965       .  S
O1662     Zr1665   2.396       .  S
O1662     Zr1681   2.387       .  S
Zr1663     O1688   2.445       .  S
Zr1663     O1682   2.448       .  S
Zr1663     O1690   2.423       .  S
Zr1663     O1678   2.450       .  S
Zr1663     O1669   2.407       .  S
Zr1663     O1670   2.415       .  S
Zr1663     O1671   2.374       .  S
Zr1663     O1672   2.384       .  S
Zr1664     O1683   2.443       .  S
Zr1664     O1676   2.434       .  S
Zr1664     O1677   2.411       .  S
Zr1664     O1670   2.389       .  S
Zr1664     O1671   2.385       .  S
Zr1665     O1667   2.435       .  S
Zr1665     O1689   2.441       .  S
Zr1665     O1691   2.451       .  S
Zr1665     O1669   2.388       .  S
Zr1665     O1672   2.388       .  S
Zr1666     O1692   2.434       .  S
Zr1666     O1693   2.435       .  S
Zr1666     O1668   2.438       .  S
Zr1666     O1669   2.394       .  S
Zr1666     O1670   2.412       .  S
O1667      H1704   0.990       .  S
O1668      H1699   0.991       .  S
O1668      H1713   0.990       .  S
O1670      H1696   0.967       .  S
O1671     Zr1681   2.360       .  S
O1672     Zr1681   2.380       .  S
O1672      H1697   0.965       .  S
C1673      C2761   1.491       .  S
C1674      C2881   1.481       .  S
C1675      C2796   1.484       .  S
O1676      H1712   0.990       .  S
O1677      C1679   1.281       .  A
O1678      C1679   1.287       .  A
C1679      C2737   1.483       .  S
O1680     Zr1681   2.437       .  S
O1680      H1709   0.990       .  S
Zr1681     O1684   2.438       .  S
Zr1681     O1685   2.440       .  S
Zr1681     O1686   2.410       .  S
O1682      C1687   1.285       .  A
O1683      H1700   0.991       .  S
O1683      H1715   0.990       .  S
O1684      H1701   0.990       .  S
O1685      H1705   0.990       .  S
O1685      H1714   0.991       .  S
O1686      C1687   1.281       .  A
C1687      C2809   1.472       .  S
O1688      H1707   0.990       .  S
O1688      H1711   0.989       .  S
O1689      H1703   0.989       .  S
O1689      H1710   0.990       .  S
O1690      C1694   1.284       .  A
O1691      C1694   1.289       .  A
O1692      H1702   0.990       .  S
O1693      H1706   0.990       .  S
C1694      C4860   1.486       .  S
Zr1717     O1718   2.442       .  S
Zr1717     O1719   2.429       .  S
Zr1717     O1720   2.448       .  S
Zr1717     O1723   2.427       .  S
Zr1717     O1725   2.379       .  S
Zr1717     O1726   2.389       .  S
Zr1717     O1727   2.402       .  S
Zr1717     O1728   2.400       .  S
O1718      H1774   0.991       .  S
O1718      H1782   0.990       .  S
O1719      C1739   1.282       .  A
O1720      C1741   1.285       .  A
O1721     Zr1731   2.440   1_556  S
O1721      C1740   1.287       .  A
O1722     Zr1730   2.403       .  S
O1722      C1741   1.279       .  A
O1723      C1740   1.284   1_554  A
O1724     Zr1732   2.446       .  S
O1724      C1739   1.286       .  A
O1725     Zr1730   2.390       .  S
O1725     Zr1732   2.378       .  S
O1726     Zr1731   2.399       .  S
O1726     Zr1732   2.380       .  S
O1726      H1761   0.964       .  S
O1727     Zr1730   2.390       .  S
O1727     Zr1747   2.400       .  S
O1727      H1764   0.965       .  S
O1728     Zr1731   2.394       .  S
O1728     Zr1747   2.385       .  S
Zr1729     O1754   2.438       .  S
Zr1729     O1748   2.451       .  S
Zr1729     O1756   2.433       .  S
Zr1729     O1744   2.462       .  S
Zr1729     O1735   2.404       .  S
Zr1729     O1736   2.417       .  S
Zr1729     O1737   2.377       .  S
Zr1729     O1738   2.391       .  S
Zr1730     O1749   2.437       .  S
Zr1730     O1742   2.435       .  S
Zr1730     O1743   2.400       .  S
Zr1730     O1736   2.393       .  S
Zr1730     O1737   2.383       .  S
Zr1731     O1733   2.434   1_554  S
Zr1731     O1755   2.440   1_554  S
Zr1731     O1757   2.451       .  S
Zr1731     O1735   2.387       .  S
Zr1731     O1738   2.392       .  S
Zr1732     O1758   2.436       .  S
Zr1732     O1759   2.434       .  S
Zr1732     O1734   2.436       .  S
Zr1732     O1735   2.390       .  S
Zr1732     O1736   2.415       .  S
O1733      H1770   0.990       .  S
O1734      H1765   0.990       .  S
O1734      H1779   0.989       .  S
O1736      H1762   0.968       .  S
O1737     Zr1747   2.366       .  S
O1738     Zr1747   2.380       .  S
O1738      H1763   0.967       .  S
C1739      C4428   1.488       .  S
C1740      C2713   1.482       .  S
C1741      C4956   1.476       .  S
O1742      H1778   0.990       .  S
O1743      C1745   1.280       .  A
O1744      C1745   1.289       .  A
C1745      C2689   1.485       .  S
O1746     Zr1747   2.435       .  S
O1746      H1775   0.990       .  S
Zr1747     O1750   2.436       .  S
Zr1747     O1751   2.438       .  S
Zr1747     O1752   2.419       .  S
O1748      C1753   1.287       .  A
O1749      H1766   0.989       .  S
O1749      H1781   0.990       .  S
O1750      H1767   0.990       .  S
O1751      H1771   0.990       .  S
O1751      H1780   0.990       .  S
O1752      C1753   1.282       .  A
C1753      C2916   1.490   1_545  S
O1754      H1773   0.990       .  S
O1754      H1777   0.990   1_545  S
O1755      H1769   0.990       .  S
O1755      H1776   0.990       .  S
O1756      C1760   1.287       .  A
O1757      C1760   1.289       .  A
O1758      H1768   0.989       .  S
O1759      H1772   0.990       .  S
C1760      C3553   1.494   1_545  S
Zr1783     O1784   2.442       .  S
Zr1783     O1785   2.450       .  S
Zr1783     O1786   2.459       .  S
Zr1783     O1789   2.425       .  S
Zr1783     O1791   2.369       .  S
Zr1783     O1792   2.395       .  S
Zr1783     O1793   2.413       .  S
Zr1783     O1794   2.404       .  S
O1784      H1840   0.990       .  S
O1784      H1848   0.990       .  S
O1785      C1805   1.287       .  A
O1786      C1807   1.287       .  A
O1787     Zr1797   2.453       .  S
O1787      C1806   1.290       .  A
O1788     Zr1796   2.394       .  S
O1788      C1807   1.278       .  A
O1789      C1806   1.284       .  A
O1790     Zr1798   2.430       .  S
O1790      C1805   1.283       .  A
O1791     Zr1796   2.383       .  S
O1791     Zr1798   2.373       .  S
O1792     Zr1797   2.400       .  S
O1792     Zr1798   2.380       .  S
O1792      H1827   0.964       .  S
O1793     Zr1796   2.392       .  S
O1793     Zr1813   2.409       .  S
O1793      H1830   0.966       .  S
O1794     Zr1797   2.385       .  S
O1794     Zr1813   2.376       .  S
Zr1795     O1820   2.442       .  S
Zr1795     O1814   2.448       .  S
Zr1795     O1822   2.437       .  S
Zr1795     O1810   2.456       .  S
Zr1795     O1801   2.419       .  S
Zr1795     O1802   2.408       .  S
Zr1795     O1803   2.380       .  S
Zr1795     O1804   2.391       .  S
Zr1796     O1815   2.437       .  S
Zr1796     O1808   2.435       .  S
Zr1796     O1809   2.400       .  S
Zr1796     O1802   2.383       .  S
Zr1796     O1803   2.385       .  S
Zr1797     O1799   2.436       .  S
Zr1797     O1821   2.436       .  S
Zr1797     O1823   2.452       .  S
Zr1797     O1801   2.393       .  S
Zr1797     O1804   2.392       .  S
Zr1798     O1824   2.435       .  S
Zr1798     O1825   2.434       .  S
Zr1798     O1800   2.438       .  S
Zr1798     O1801   2.404       .  S
Zr1798     O1802   2.408       .  S
O1799      H1836   0.990       .  S
O1800      H1831   0.991       .  S
O1800      H1845   0.989       .  S
O1802      H1828   0.969       .  S
O1803     Zr1813   2.374       .  S
O1804     Zr1813   2.378       .  S
O1804      H1829   0.966       .  S
C1805      C4620   1.495       .  S
C1806      C2724   1.486       .  S
C1807      C4788   1.484       .  S
O1808      H1844   0.990       .  S
O1809      C1811   1.279       .  A
O1810      C1811   1.289       .  A
C1811      C2748   1.486       .  S
O1812     Zr1813   2.436       .  S
O1812      H1841   0.991       .  S
Zr1813     O1816   2.435       .  S
Zr1813     O1817   2.438       .  S
Zr1813     O1818   2.429       .  S
O1814      C1819   1.287       .  A
O1815      H1832   0.990       .  S
O1815      H1847   0.991       .  S
O1816      H1833   0.991       .  S
O1817      H1837   0.990       .  S
O1817      H1846   0.990       .  S
O1818      C1819   1.284       .  A
C1819      C2676   1.479       .  S
O1820      H1839   0.989       .  S
O1820      H1843   0.990       .  S
O1821      H1835   0.990       .  S
O1821      H1842   0.990       .  S
O1822      C1826   1.286       .  A
O1823      C1826   1.289       .  A
O1824      H1834   0.990       .  S
O1825      H1838   0.990       .  S
C1826      C2641   1.491       .  S
Zr1849     O1850   2.442       .  S
Zr1849     O1851   2.444       .  S
Zr1849     O1852   2.458       .  S
Zr1849     O1855   2.436       .  S
Zr1849     O1857   2.376       .  S
Zr1849     O1858   2.392       .  S
Zr1849     O1859   2.411       .  S
Zr1849     O1860   2.399       .  S
O1850      H1906   0.990       .  S
O1850      H1914   0.990       .  S
O1851      C1871   1.285       .  A
O1852      C1873   1.287       .  A
O1853     Zr1863   2.442       .  S
O1853      C1872   1.287       .  A
O1854     Zr1862   2.403       .  S
O1854      C1873   1.279       .  A
O1855      C1872   1.286       .  A
O1856     Zr1864   2.423       .  S
O1856      C1871   1.282       .  A
O1857     Zr1862   2.387       .  S
O1857     Zr1864   2.376       .  S
O1858     Zr1863   2.398       .  S
O1858     Zr1864   2.381       .  S
O1858      H1893   0.966       .  S
O1859     Zr1862   2.397       .  S
O1859     Zr1879   2.397       .  S
O1859      H1896   0.966       .  S
O1860     Zr1863   2.389       .  S
O1860     Zr1879   2.384       .  S
Zr1861     O1886   2.439   1_565  S
Zr1861     O1880   2.444       .  S
Zr1861     O1888   2.428   1_565  S
Zr1861     O1876   2.467       .  S
Zr1861     O1867   2.406       .  S
Zr1861     O1868   2.408       .  S
Zr1861     O1869   2.375       .  S
Zr1861     O1870   2.394       .  S
Zr1862     O1881   2.438       .  S
Zr1862     O1874   2.435       .  S
Zr1862     O1875   2.401       .  S
Zr1862     O1868   2.388       .  S
Zr1862     O1869   2.389       .  S
Zr1863     O1865   2.435       .  S
Zr1863     O1887   2.438       .  S
Zr1863     O1889   2.447       .  S
Zr1863     O1867   2.384       .  S
Zr1863     O1870   2.390       .  S
Zr1864     O1890   2.436       .  S
Zr1864     O1891   2.436       .  S
Zr1864     O1866   2.435       .  S
Zr1864     O1867   2.388       .  S
Zr1864     O1868   2.406       .  S
O1865      H1902   0.990       .  S
O1866      H1897   0.990       .  S
O1866      H1911   0.990       .  S
O1868      H1894   0.969       .  S
O1869     Zr1879   2.373       .  S
O1870     Zr1879   2.385       .  S
O1870      H1895   0.965       .  S
C1871      C3684   1.489       .  S
C1872      C2617   1.484       .  S
C1873      C3540   1.479       .  S
O1874      H1910   0.990       .  S
O1875      C1877   1.280       .  A
O1876      C1877   1.290       .  A
C1877      C2700   1.489       .  S
O1878     Zr1879   2.435       .  S
O1878      H1907   0.991       .  S
Zr1879     O1882   2.436       .  S
Zr1879     O1883   2.440       .  S
Zr1879     O1884   2.423       .  S
O1880      C1885   1.286       .  A
O1881      H1898   0.990       .  S
O1881      H1913   0.990       .  S
O1882      H1899   0.990       .  S
O1883      H1903   0.990       .  S
O1883      H1912   0.989       .  S
O1884      C1885   1.283       .  A
C1885      C2820   1.483   1_565  S
O1886      H1905   0.990       .  S
O1886      H1909   0.990       .  S
O1887      H1901   0.990       .  S
O1887      H1908   0.989       .  S
O1888      C1892   1.285       .  A
O1889      C1892   1.289   1_565  A
O1890      H1900   0.990       .  S
O1891      H1904   0.991       .  S
C1892      C4740   1.489       .  S
Zr1915     O1916   2.441       .  S
Zr1915     O1917   2.435       .  S
Zr1915     O1918   2.458       .  S
Zr1915     O1921   2.436       .  S
Zr1915     O1923   2.376       .  S
Zr1915     O1924   2.396       .  S
Zr1915     O1925   2.406       .  S
Zr1915     O1926   2.396       .  S
O1916      H1972   0.990       .  S
O1916      H1980   0.991       .  S
O1917      C1937   1.285       .  A
O1918      C1939   1.287       .  A
O1919     Zr1929   2.445       .  S
O1919      C1938   1.288       .  A
O1920     Zr1928   2.403       .  S
O1920      C1939   1.280       .  A
O1921      C1938   1.286       .  A
O1922     Zr1930   2.456       .  S
O1922      C1937   1.288       .  A
O1923     Zr1928   2.387       .  S
O1923     Zr1930   2.371       .  S
O1924     Zr1929   2.399       .  S
O1924     Zr1930   2.387       .  S
O1924      H1959   0.965       .  S
O1925     Zr1928   2.392       .  S
O1925     Zr1945   2.399       .  S
O1925      H1962   0.966       .  S
O1926     Zr1929   2.388       .  S
O1926     Zr1945   2.378       .  S
Zr1927     O1952   2.439       .  S
Zr1927     O1946   2.459       .  S
Zr1927     O1954   2.420       .  S
Zr1927     O1942   2.450       .  S
Zr1927     O1933   2.416       .  S
Zr1927     O1934   2.415       .  S
Zr1927     O1935   2.377       .  S
Zr1927     O1936   2.388       .  S
Zr1928     O1947   2.436       .  S
Zr1928     O1940   2.434       .  S
Zr1928     O1941   2.412       .  S
Zr1928     O1934   2.389       .  S
Zr1928     O1935   2.386       .  S
Zr1929     O1931   2.435       .  S
Zr1929     O1953   2.437       .  S
Zr1929     O1955   2.449       .  S
Zr1929     O1933   2.390       .  S
Zr1929     O1936   2.391       .  S
Zr1930     O1956   2.435       .  S
Zr1930     O1957   2.435       .  S
Zr1930     O1932   2.438       .  S
Zr1930     O1933   2.408       .  S
Zr1930     O1934   2.413       .  S
O1931      H1968   0.990       .  S
O1932      H1963   0.990       .  S
O1932      H1977   0.990       .  S
O1934      H1960   0.969       .  S
O1935     Zr1945   2.368       .  S
O1936     Zr1945   2.385       .  S
O1936      H1961   0.966       .  S
C1937      C3396   1.494       .  S
C1938      C2628   1.485       .  S
C1939      C3636   1.483       .  S
O1940      H1976   0.990       .  S
O1941      C1943   1.282       .  A
O1942      C1943   1.287       .  A
C1943      C2833   1.480       .  S
O1944     Zr1945   2.436       .  S
O1944      H1973   0.990       .  S
Zr1945     O1948   2.434       .  S
Zr1945     O1949   2.439       .  S
Zr1945     O1950   2.412       .  S
O1946      C1951   1.288       .  A
O1947      H1964   0.990       .  S
O1947      H1979   0.990       .  S
O1948      H1965   0.990       .  S
O1949      H1969   0.990       .  S
O1949      H1978   0.990       .  S
O1950      C1951   1.280       .  A
C1951      C2665   1.484       .  S
O1952      H1971   0.990       .  S
O1952      H1975   0.990       .  S
O1953      H1967   0.990       .  S
O1953      H1974   0.990       .  S
O1954      C1958   1.283       .  A
O1955      C1958   1.288       .  A
O1956      H1966   0.989       .  S
O1957      H1970   0.990       .  S
C1958      C2593   1.489       .  S
Zr1981     O1982   2.442       .  S
Zr1981     O1983   2.434       .  S
Zr1981     O1984   2.449       .  S
Zr1981     O1987   2.442       .  S
Zr1981     O1989   2.385       .  S
Zr1981     O1990   2.385       .  S
Zr1981     O1991   2.403       .  S
Zr1981     O1992   2.401       .  S
O1982      H2038   0.990       .  S
O1982      H2046   0.991       .  S
O1983      C2003   1.285       .  A
O1984      C2005   1.287   1_556  A
O1985     Zr1995   2.407       .  S
O1985      C2004   1.281       .  A
O1986     Zr1994   2.458   1_554  S
O1986      C2005   1.290       .  A
O1987      C2004   1.288       .  A
O1988     Zr1996   2.430       .  S
O1988      C2003   1.284       .  A
O1989     Zr1994   2.398       .  S
O1989     Zr1996   2.383       .  S
O1990     Zr1995   2.388       .  S
O1990     Zr1996   2.367       .  S
O1990      H2025   0.965       .  S
O1991     Zr1994   2.406       .  S
O1991     Zr2011   2.383       .  S
O1991      H2028   0.964       .  S
O1992     Zr1995   2.394       .  S
O1992     Zr2011   2.384       .  S
Zr1993     O2018   2.438   1_565  S
Zr1993     O2012   2.445   1_565  S
Zr1993     O2020   2.453       .  S
Zr1993     O2008   2.439   1_565  S
Zr1993     O1999   2.407       .  S
Zr1993     O2000   2.412       .  S
Zr1993     O2001   2.382       .  S
Zr1993     O2002   2.379       .  S
Zr1994     O2013   2.437   1_556  S
Zr1994     O2006   2.436   1_556  S
Zr1994     O2007   2.456       .  S
Zr1994     O2000   2.403       .  S
Zr1994     O2001   2.402       .  S
Zr1995     O1997   2.435       .  S
Zr1995     O2019   2.437       .  S
Zr1995     O2021   2.427       .  S
Zr1995     O1999   2.386       .  S
Zr1995     O2002   2.389       .  S
Zr1996     O2022   2.438       .  S
Zr1996     O2023   2.436       .  S
Zr1996     O1998   2.437       .  S
Zr1996     O1999   2.403       .  S
Zr1996     O2000   2.393       .  S
O1997      H2034   0.990       .  S
O1998      H2029   0.990       .  S
O1998      H2043   0.990       .  S
O2000      H2026   0.965       .  S
O2001     Zr2011   2.385       .  S
O2002     Zr2011   2.366       .  S
O2002      H2027   0.964       .  S
C2003      C3913   1.486       .  S
C2004      C4308   1.482       .  S
C2005      C2569   1.495       .  S
O2006      H2042   0.990       .  S
O2007      C2009   1.290   1_565  A
O2008      C2009   1.287       .  A
C2009      C3001   1.493       .  S
O2010     Zr2011   2.437       .  S
O2010      H2039   0.990       .  S
Zr2011     O2014   2.436       .  S
Zr2011     O2015   2.438       .  S
Zr2011     O2016   2.412       .  S
O2012      C2017   1.286   1_545  A
O2013      H2030   0.990       .  S
O2013      H2045   0.990   1_554  S
O2014      H2031   0.990       .  S
O2015      H2035   0.990       .  S
O2015      H2044   0.990       .  S
O2016      C2017   1.280       .  A
C2017      C2545   1.473   1_565  S
O2018      H2037   0.990       .  S
O2018      H2041   0.990       .  S
O2019      H2033   0.990       .  S
O2019      H2040   0.990       .  S
O2020      C2024   1.289       .  A
O2021      C2024   1.284       .  A
O2022      H2032   0.990       .  S
O2023      H2036   0.990       .  S
C2024      C2521   1.491       .  S
Zr2047     O2048   2.442       .  S
Zr2047     O2049   2.444       .  S
Zr2047     O2050   2.435       .  S
Zr2047     O2053   2.441       .  S
Zr2047     O2055   2.386       .  S
Zr2047     O2056   2.381       .  S
Zr2047     O2057   2.414       .  S
Zr2047     O2058   2.405       .  S
O2048      H2104   0.990       .  S
O2048      H2112   0.990       .  S
O2049      C2069   1.286       .  A
O2050      C2071   1.285       .  A
O2051     Zr2061   2.412       .  S
O2051      C2070   1.282       .  A
O2052     Zr2060   2.454       .  S
O2052      C2071   1.289       .  A
O2053      C2070   1.287       .  A
O2054     Zr2062   2.433       .  S
O2054      C2069   1.284       .  A
O2055     Zr2060   2.399       .  S
O2055     Zr2062   2.379       .  S
O2056     Zr2061   2.387       .  S
O2056     Zr2062   2.371       .  S
O2056      H2091   0.966       .  S
O2057     Zr2060   2.407       .  S
O2057     Zr2077   2.392       .  S
O2057      H2094   0.963       .  S
O2058     Zr2061   2.387       .  S
O2058     Zr2077   2.394       .  S
Zr2059     O2084   2.439       .  S
Zr2059     O2078   2.450       .  S
Zr2059     O2086   2.462       .  S
Zr2059     O2074   2.427       .  S
Zr2059     O2065   2.411       .  S
Zr2059     O2066   2.413       .  S
Zr2059     O2067   2.385       .  S
Zr2059     O2068   2.375       .  S
Zr2060     O2079   2.437       .  S
Zr2060     O2072   2.435       .  S
Zr2060     O2073   2.463       .  S
Zr2060     O2066   2.397       .  S
Zr2060     O2067   2.396       .  S
Zr2061     O2063   2.438       .  S
Zr2061     O2085   2.436       .  S
Zr2061     O2087   2.410       .  S
Zr2061     O2065   2.393       .  S
Zr2061     O2068   2.388       .  S
Zr2062     O2088   2.437       .  S
Zr2062     O2089   2.435       .  S
Zr2062     O2064   2.439       .  S
Zr2062     O2065   2.406       .  S
Zr2062     O2066   2.392       .  S
O2063      H2100   0.990       .  S
O2064      H2095   0.990       .  S
O2064      H2109   0.989       .  S
O2066      H2092   0.965       .  S
O2067     Zr2077   2.381       .  S
O2068     Zr2077   2.368       .  S
O2068      H2093   0.963       .  S
C2069      C3841   1.494       .  S
C2070      C4164   1.479       .  S
C2071      C2580   1.493       .  S
O2072      H2108   0.990       .  S
O2073      C2075   1.291       .  A
O2074      C2075   1.285       .  A
C2075      C2857   1.494       .  S
O2076     Zr2077   2.435       .  S
O2076      H2105   0.990       .  S
Zr2077     O2080   2.434       .  S
Zr2077     O2081   2.443       .  S
Zr2077     O2082   2.417       .  S
O2078      C2083   1.286       .  A
O2079      H2096   0.990       .  S
O2079      H2111   0.990       .  S
O2080      H2097   0.989       .  S
O2081      H2101   0.990       .  S
O2081      H2110   0.990       .  S
O2082      C2083   1.280       .  A
C2083      C2497   1.472       .  S
O2084      H2103   0.991       .  S
O2084      H2107   0.990       .  S
O2085      H2099   0.990       .  S
O2085      H2106   0.991       .  S
O2086      C2090   1.290       .  A
O2087      C2090   1.281       .  A
O2088      H2098   0.989       .  S
O2089      H2102   0.990       .  S
C2090      C2473   1.486       .  S
Zr2113     O2114   2.442       .  S
Zr2113     O2115   2.428       .  S
Zr2113     O2116   2.429       .  S
Zr2113     O2119   2.449       .  S
Zr2113     O2121   2.386       .  S
Zr2113     O2122   2.380       .  S
Zr2113     O2123   2.409       .  S
Zr2113     O2124   2.401       .  S
O2114      H2170   0.991       .  S
O2114      H2178   0.990       .  S
O2115      C2135   1.283       .  A
O2116      C2137   1.283       .  A
O2117     Zr2127   2.390       .  S
O2117      C2136   1.278       .  A
O2118     Zr2126   2.443       .  S
O2118      C2137   1.287       .  A
O2119      C2136   1.287       .  A
O2120     Zr2128   2.431       .  S
O2120      C2135   1.283       .  A
O2121     Zr2126   2.399       .  S
O2121     Zr2128   2.381       .  S
O2122     Zr2127   2.386       .  S
O2122     Zr2128   2.375       .  S
O2122      H2157   0.967       .  S
O2123     Zr2126   2.402       .  S
O2123     Zr2143   2.385       .  S
O2123      H2160   0.965       .  S
O2124     Zr2127   2.389       .  S
O2124     Zr2143   2.397       .  S
Zr2125     O2150   2.439       .  S
Zr2125     O2144   2.445       .  S
Zr2125     O2152   2.459       .  S
Zr2125     O2140   2.432       .  S
Zr2125     O2131   2.407       .  S
Zr2125     O2132   2.419       .  S
Zr2125     O2133   2.385       .  S
Zr2125     O2134   2.377       .  S
Zr2126     O2145   2.436       .  S
Zr2126     O2138   2.437       .  S
Zr2126     O2139   2.439       .  S
Zr2126     O2132   2.407       .  S
Zr2126     O2133   2.389       .  S
Zr2127     O2129   2.438       .  S
Zr2127     O2151   2.437       .  S
Zr2127     O2153   2.413       .  S
Zr2127     O2131   2.384       .  S
Zr2127     O2134   2.386       .  S
Zr2128     O2154   2.436       .  S
Zr2128     O2155   2.435       .  S
Zr2128     O2130   2.439       .  S
Zr2128     O2131   2.405       .  S
Zr2128     O2132   2.395       .  S
O2129      H2166   0.989       .  S
O2130      H2161   0.990       .  S
O2130      H2175   0.990       .  S
O2132      H2158   0.966       .  S
O2133     Zr2143   2.371       .  S
O2134     Zr2143   2.373       .  S
O2134      H2159   0.964       .  S
C2135      C2604   1.484       .  S
C2136      C2785   1.482       .  S
C2137      C2449   1.480       .  S
O2138      H2174   0.990       .  S
O2139      C2141   1.286       .  A
O2140      C2141   1.286       .  A
C2141      C4225   1.483       .  S
O2142     Zr2143   2.436       .  S
O2142      H2171   0.990       .  S
Zr2143     O2146   2.435       .  S
Zr2143     O2147   2.437       .  S
Zr2143     O2148   2.423       .  S
O2144      C2149   1.286       .  A
O2145      H2162   0.990       .  S
O2145      H2177   0.990       .  S
O2146      H2163   0.989       .  S
O2147      H2167   0.990       .  S
O2147      H2176   0.990       .  S
O2148      C2149   1.283       .  A
C2149      C2425   1.480       .  S
O2150      H2169   0.990       .  S
O2150      H2173   0.990       .  S
O2151      H2165   0.989       .  S
O2151      H2172   0.989       .  S
O2152      C2156   1.290       .  A
O2153      C2156   1.281       .  A
O2154      H2164   0.990       .  S
O2155      H2168   0.990       .  S
C2156      C2484   1.490       .  S
Zr2179     O2180   2.443       .  S
Zr2179     O2181   2.437       .  S
Zr2179     O2182   2.436       .  S
Zr2179     O2185   2.442       .  S
Zr2179     O2187   2.385       .  S
Zr2179     O2188   2.382       .  S
Zr2179     O2189   2.411       .  S
Zr2179     O2190   2.400       .  S
O2180      H2236   0.990       .  S
O2180      H2244   0.991       .  S
O2181      C2201   1.285       .  A
O2182      C2203   1.285       .  A
O2183     Zr2193   2.417       .  S
O2183      C2202   1.283       .  A
O2184     Zr2192   2.435       .  S
O2184      C2203   1.286       .  A
O2185      C2202   1.286       .  A
O2186     Zr2194   2.438       .  S
O2186      C2201   1.285       .  A
O2187     Zr2192   2.403       .  S
O2187     Zr2194   2.378       .  S
O2188     Zr2193   2.388       .  S
O2188     Zr2194   2.376       .  S
O2188      H2223   0.965       .  S
O2189     Zr2192   2.408       .  S
O2189     Zr2209   2.381       .  S
O2189      H2226   0.965       .  S
O2190     Zr2193   2.389       .  S
O2190     Zr2209   2.385       .  S
Zr2191     O2216   2.439       .  S
Zr2191     O2210   2.449       .  S
Zr2191     O2218   2.446       .  S
Zr2191     O2206   2.433       .  S
Zr2191     O2197   2.410       .  S
Zr2191     O2198   2.418       .  S
Zr2191     O2199   2.377       .  S
Zr2191     O2200   2.382       .  S
Zr2192     O2211   2.435       .  S
Zr2192     O2204   2.435       .  S
Zr2192     O2205   2.451       .  S
Zr2192     O2198   2.400       .  S
Zr2192     O2199   2.390       .  S
Zr2193     O2195   2.436       .  S
Zr2193     O2217   2.436       .  S
Zr2193     O2219   2.418       .  S
Zr2193     O2197   2.384       .  S
Zr2193     O2200   2.394       .  S
Zr2194     O2220   2.437       .  S
Zr2194     O2221   2.436       .  S
Zr2194     O2196   2.436       .  S
Zr2194     O2197   2.407       .  S
Zr2194     O2198   2.400       .  S
O2195      H2232   0.990       .  S
O2196      H2227   0.990       .  S
O2196      H2241   0.990       .  S
O2198      H2224   0.965       .  S
O2199     Zr2209   2.377       .  S
O2200     Zr2209   2.372       .  S
O2200      H2225   0.967       .  S
C2201      C2652   1.494       .  S
C2202      C2929   1.481       .  S
C2203      C2460   1.484       .  S
O2204      H2240   0.990       .  S
O2205      C2207   1.288       .  A
O2206      C2207   1.285       .  A
C2207      C2953   1.492       .  S
O2208     Zr2209   2.435       .  S
O2208      H2237   0.990       .  S
Zr2209     O2212   2.436       .  S
Zr2209     O2213   2.438       .  S
Zr2209     O2214   2.408       .  S
O2210      C2215   1.286       .  A
O2211      H2228   0.990       .  S
O2211      H2243   0.990       .  S
O2212      H2229   0.990       .  S
O2213      H2233   0.990       .  S
O2213      H2242   0.990       .  S
O2214      C2215   1.280       .  A
C2215      C2556   1.477       .  S
O2216      H2235   0.990       .  S
O2216      H2239   0.991       .  S
O2217      H2231   0.990       .  S
O2217      H2238   0.990       .  S
O2218      C2222   1.287       .  A
O2219      C2222   1.282       .  A
O2220      H2230   0.990       .  S
O2221      H2234   0.990       .  S
C2222      C2401   1.484   1_556  S
Zr2245     O2246   2.440       .  S
Zr2245     O2247   2.445       .  S
Zr2245     O2248   2.446       .  S
Zr2245     O2251   2.450       .  S
Zr2245     O2253   2.391       .  S
Zr2245     O2254   2.384       .  S
Zr2245     O2255   2.410       .  S
Zr2245     O2256   2.405       .  S
O2246      H2302   0.990       .  S
O2246      H2310   0.991       .  S
O2247      C2267   1.287       .  A
O2248      C2269   1.287       .  A
O2249     Zr2259   2.406       .  S
O2249      C2268   1.281       .  A
O2250     Zr2258   2.442       .  S
O2250      C2269   1.288       .  A
O2251      C2268   1.288       .  A
O2252     Zr2260   2.435       .  S
O2252      C2267   1.284       .  A
O2253     Zr2258   2.397       .  S
O2253     Zr2260   2.381       .  S
O2254     Zr2259   2.386       .  S
O2254     Zr2260   2.372       .  S
O2254      H2289   0.966       .  S
O2255     Zr2258   2.403       .  S
O2255     Zr2275   2.383       .  S
O2255      H2292   0.965       .  S
O2256     Zr2259   2.391       .  S
O2256     Zr2275   2.395       .  S
Zr2257     O2282   2.439       .  S
Zr2257     O2276   2.449       .  S
Zr2257     O2284   2.465       .  S
Zr2257     O2272   2.433       .  S
Zr2257     O2263   2.410       .  S
Zr2257     O2264   2.420       .  S
Zr2257     O2265   2.381       .  S
Zr2257     O2266   2.381       .  S
Zr2258     O2277   2.436       .  S
Zr2258     O2270   2.435       .  S
Zr2258     O2271   2.449       .  S
Zr2258     O2264   2.404       .  S
Zr2258     O2265   2.388       .  S
Zr2259     O2261   2.436       .  S
Zr2259     O2283   2.437       .  S
Zr2259     O2285   2.409       .  S
Zr2259     O2263   2.383       .  S
Zr2259     O2266   2.394       .  S
Zr2260     O2286   2.438       .  S
Zr2260     O2287   2.436       .  S
Zr2260     O2262   2.439       .  S
Zr2260     O2263   2.407       .  S
Zr2260     O2264   2.392       .  S
O2261      H2298   0.990       .  S
O2262      H2293   0.990       .  S
O2262      H2307   0.989       .  S
O2264      H2290   0.965       .  S
O2265     Zr2275   2.373       .  S
O2266     Zr2275   2.369       .  S
O2266      H2291   0.967       .  S
C2267      C3132   1.489       .  S
C2268      C2988   1.484       .  S
C2269      C2377   1.487       .  S
O2270      H2306   0.990       .  S
O2271      C2273   1.288       .  A
O2272      C2273   1.286       .  A
C2273      C4116   1.488   1_545  S
O2274     Zr2275   2.437       .  S
O2274      H2303   0.990       .  S
Zr2275     O2278   2.437       .  S
Zr2275     O2279   2.437       .  S
Zr2275     O2280   2.412       .  S
O2276      C2281   1.286       .  A
O2277      H2294   0.990       .  S
O2277      H2309   0.990       .  S
O2278      H2295   0.989       .  S
O2279      H2299   0.990       .  S
O2279      H2308   0.990       .  S
O2280      C2281   1.281       .  A
C2281      C2436   1.479   1_545  S
O2282      H2301   0.990       .  S
O2282      H2305   0.991   1_545  S
O2283      H2297   0.990       .  S
O2283      H2304   0.989       .  S
O2284      C2288   1.291       .  A
O2285      C2288   1.281       .  A
O2286      H2296   0.990       .  S
O2287      H2300   0.991       .  S
C2288      C2532   1.489       .  S
Zr2311     O2312   2.441       .  S
Zr2311     O2313   2.439       .  S
Zr2311     O2314   2.445       .  S
Zr2311     O2317   2.451       .  S
Zr2311     O2319   2.388       .  S
Zr2311     O2320   2.384       .  S
Zr2311     O2321   2.414       .  S
Zr2311     O2322   2.400       .  S
O2312      H2368   0.990       .  S
O2312      H2376   0.990       .  S
O2313      C2333   1.285       .  A
O2314      C2335   1.287       .  A
O2315     Zr2325   2.394       .  S
O2315      C2334   1.279       .  A
O2316     Zr2324   2.440       .  S
O2316      C2335   1.286       .  A
O2317      C2334   1.288       .  A
O2318     Zr2326   2.443       .  S
O2318      C2333   1.286       .  A
O2319     Zr2324   2.405       .  S
O2319     Zr2326   2.381       .  S
O2320     Zr2325   2.384       .  S
O2320     Zr2326   2.368       .  S
O2320      H2355   0.966       .  S
O2321     Zr2324   2.403       .  S
O2321     Zr2341   2.391       .  S
O2321      H2358   0.964       .  S
O2322     Zr2325   2.388       .  S
O2322     Zr2341   2.385       .  S
Zr2323     O2348   2.439       .  S
Zr2323     O2342   2.462       .  S
Zr2323     O2350   2.457       .  S
Zr2323     O2338   2.423       .  S
Zr2323     O2329   2.417       .  S
Zr2323     O2330   2.418       .  S
Zr2323     O2331   2.381       .  S
Zr2323     O2332   2.374       .  S
Zr2324     O2343   2.436       .  S
Zr2324     O2336   2.436       .  S
Zr2324     O2337   2.454       .  S
Zr2324     O2330   2.393       .  S
Zr2324     O2331   2.391       .  S
Zr2325     O2327   2.436       .  S
Zr2325     O2349   2.437       .  S
Zr2325     O2351   2.407       .  S
Zr2325     O2329   2.384       .  S
Zr2325     O2332   2.382       .  S
Zr2326     O2352   2.437       .  S
Zr2326     O2353   2.437       .  S
Zr2326     O2328   2.438       .  S
Zr2326     O2329   2.414       .  S
Zr2326     O2330   2.403       .  S
O2327      H2364   0.990       .  S
O2328      H2359   0.990       .  S
O2328      H2373   0.990       .  S
O2330      H2356   0.966       .  S
O2331     Zr2341   2.383       .  S
O2332     Zr2341   2.364       .  S
O2332      H2357   0.967       .  S
C2333      C3241   1.495       .  S
C2334      C3049   1.481       .  S
C2335      C2388   1.489       .  S
O2336      H2372   0.990       .  S
O2337      C2339   1.289       .  A
O2338      C2339   1.284       .  A
C2339      C2772   1.485       .  S
O2340     Zr2341   2.437       .  S
O2340      H2369   0.991       .  S
Zr2341     O2344   2.435       .  S
Zr2341     O2345   2.437       .  S
Zr2341     O2346   2.425       .  S
O2342      C2347   1.289       .  A
O2343      H2360   0.990       .  S
O2343      H2375   0.990       .  S
O2344      H2361   0.991       .  S
O2345      H2365   0.990       .  S
O2345      H2374   0.990       .  S
O2346      C2347   1.283       .  A
C2347      C2508   1.484       .  S
O2348      H2367   0.990       .  S
O2348      H2371   0.990       .  S
O2349      H2363   0.990       .  S
O2349      H2370   0.990       .  S
O2350      C2354   1.289       .  A
O2351      C2354   1.281       .  A
O2352      H2362   0.989       .  S
O2353      H2366   0.990       .  S
C2354      C2412   1.486       .  S
C2377      C2378   1.405       .  A
C2377      C2382   1.409       .  A
C2378      C2379   1.400       .  A
C2378      H2391   1.083       .  S
C2379      C2380   1.405       .  A
C2379      H2392   1.083       .  S
C2380      C2381   1.406       .  A
C2380      C2383   1.490       .  S
C2381      C2382   1.401       .  A
C2381      H2393   1.082       .  S
C2382      H2394   1.083       .  S
C2383      C2384   1.350       .  D
C2383      H2395   1.086       .  S
C2384      C2385   1.491       .  S
C2384      H2396   1.086       .  S
C2385      C2386   1.405       .  A
C2385      C2390   1.406       .  A
C2386      C2387   1.403       .  A
C2386      H2397   1.083       .  S
C2387      C2388   1.408       .  A
C2387      H2398   1.083       .  S
C2388      C2389   1.407       .  A
C2389      C2390   1.398       .  A
C2389      H2399   1.083       .  S
C2390      H2400   1.082       .  S
C2401      C2402   1.405       .  A
C2401      C2406   1.407       .  A
C2402      C2403   1.401       .  A
C2402      H2415   1.083   1_554  S
C2403      C2404   1.407       .  A
C2403      H2416   1.083       .  S
C2404      C2405   1.407       .  A
C2404      C2407   1.492       .  S
C2405      C2406   1.397       .  A
C2405      H2417   1.080       .  S
C2406      H2418   1.083       .  S
C2407      C2408   1.353       .  D
C2407      H2419   1.084       .  S
C2408      C2409   1.490       .  S
C2408      H2420   1.083       .  S
C2409      C2410   1.408       .  A
C2409      C2414   1.405       .  A
C2410      C2411   1.403       .  A
C2410      H2421   1.083       .  S
C2411      C2412   1.404       .  A
C2411      H2422   1.083       .  S
C2412      C2413   1.409       .  A
C2413      C2414   1.394       .  A
C2413      H2423   1.083       .  S
C2414      H2424   1.081       .  S
C2425      C2426   1.405       .  A
C2425      C2430   1.404       .  A
C2426      C2427   1.398       .  A
C2426      H2439   1.083       .  S
C2427      C2428   1.407       .  A
C2427      H2440   1.082       .  S
C2428      C2429   1.405       .  A
C2428      C2431   1.487       .  S
C2429      C2430   1.402       .  A
C2429      H2441   1.083       .  S
C2430      H2442   1.083       .  S
C2431      C2432   1.348       .  D
C2431      H2443   1.086       .  S
C2432      C2433   1.487       .  S
C2432      H2444   1.086       .  S
C2433      C2434   1.407       .  A
C2433      C2438   1.406       .  A
C2434      C2435   1.404       .  A
C2434      H2445   1.083       .  S
C2435      C2436   1.404       .  A
C2435      H2446   1.083       .  S
C2436      C2437   1.405       .  A
C2437      C2438   1.394       .  A
C2437      H2447   1.084       .  S
C2438      H2448   1.082       .  S
C2449      C2450   1.407       .  A
C2449      C2454   1.405       .  A
C2450      C2451   1.396       .  A
C2450      H2463   1.083       .  S
C2451      C2452   1.401       .  A
C2451      H2464   1.083       .  S
C2452      C2453   1.407       .  A
C2452      C2455   1.482       .  S
C2453      C2454   1.400       .  A
C2453      H2465   1.083       .  S
C2454      H2466   1.083       .  S
C2455      C2456   1.347   1_565  D
C2455      H2467   1.085       .  S
C2456      C2457   1.486       .  S
C2456      H2468   1.087       .  S
C2457      C2458   1.404       .  A
C2457      C2462   1.406       .  A
C2458      C2459   1.399       .  A
C2458      H2469   1.083       .  S
C2459      C2460   1.406       .  A
C2459      H2470   1.083       .  S
C2460      C2461   1.407       .  A
C2461      C2462   1.396       .  A
C2461      H2471   1.083       .  S
C2462      H2472   1.081       .  S
C2473      C2474   1.404       .  A
C2473      C2478   1.409       .  A
C2474      C2475   1.402       .  A
C2474      H2487   1.083       .  S
C2475      C2476   1.407       .  A
C2475      H2488   1.083       .  S
C2476      C2477   1.406       .  A
C2476      C2479   1.492       .  S
C2477      C2478   1.398       .  A
C2477      H2489   1.081       .  S
C2478      H2490   1.083       .  S
C2479      C2480   1.354       .  D
C2479      H2491   1.082       .  S
C2480      C2481   1.497       .  S
C2480      H2492   1.085       .  S
C2481      C2482   1.409       .  A
C2481      C2486   1.408       .  A
C2482      C2483   1.403       .  A
C2482      H2493   1.083       .  S
C2483      C2484   1.404       .  A
C2483      H2494   1.083       .  S
C2484      C2485   1.409       .  A
C2485      C2486   1.397       .  A
C2485      H2495   1.083       .  S
C2486      H2496   1.079       .  S
C2497      C2498   1.401       .  A
C2497      C2502   1.404       .  A
C2498      C2499   1.400       .  A
C2498      H2511   1.083       .  S
C2499      C2500   1.405       .  A
C2499      H2512   1.083       .  S
C2500      C2501   1.409       .  A
C2500      C2503   1.492       .  S
C2501      C2502   1.404       .  A
C2501      H2513   1.082       .  S
C2502      H2514   1.083       .  S
C2503      C2504   1.351   1_565  D
C2503      H2515   1.086   1_565  S
C2504      C2505   1.494       .  S
C2504      H2516   1.086       .  S
C2505      C2506   1.405       .  A
C2505      C2510   1.409       .  A
C2506      C2507   1.402       .  A
C2506      H2517   1.083       .  S
C2507      C2508   1.405       .  A
C2507      H2518   1.083       .  S
C2508      C2509   1.405       .  A
C2509      C2510   1.405       .  A
C2509      H2519   1.083       .  S
C2510      H2520   1.082       .  S
C2521      C2522   1.406   1_565  A
C2521      C2526   1.408       .  A
C2522      C2523   1.405       .  A
C2522      H2535   1.083       .  S
C2523      C2524   1.408       .  A
C2523      H2536   1.083       .  S
C2524      C2525   1.408   1_545  A
C2524      C2527   1.498       .  S
C2525      C2526   1.398       .  A
C2525      H2537   1.080       .  S
C2526      H2538   1.083       .  S
C2527      C2528   1.355   1_545  D
C2527      H2539   1.084       .  S
C2528      C2529   1.496   1_565  S
C2528      H2540   1.083       .  S
C2529      C2530   1.409   1_545  A
C2529      C2534   1.407       .  A
C2530      C2531   1.403   1_565  A
C2530      H2541   1.083       .  S
C2531      C2532   1.403       .  A
C2531      H2542   1.083   1_545  S
C2532      C2533   1.410       .  A
C2533      C2534   1.399       .  A
C2533      H2543   1.083       .  S
C2534      H2544   1.080       .  S
C2545      C2546   1.403       .  A
C2545      C2550   1.405       .  A
C2546      C2547   1.399       .  A
C2546      H2559   1.083       .  S
C2547      C2548   1.402       .  A
C2547      H2560   1.083       .  S
C2548      C2549   1.406       .  A
C2548      C2551   1.479       .  S
C2549      C2550   1.400       .  A
C2549      H2561   1.083       .  S
C2550      H2562   1.083       .  S
C2551      C2552   1.343       .  D
C2551      H2563   1.087       .  S
C2552      C2553   1.482       .  S
C2552      H2564   1.087       .  S
C2553      C2554   1.404       .  A
C2553      C2558   1.404       .  A
C2554      C2555   1.403       .  A
C2554      H2565   1.083       .  S
C2555      C2556   1.405       .  A
C2555      H2566   1.083       .  S
C2556      C2557   1.405       .  A
C2557      C2558   1.395       .  A
C2557      H2567   1.084       .  S
C2558      H2568   1.083       .  S
C2569      C2570   1.408       .  A
C2569      C2574   1.410       .  A
C2570      C2571   1.405       .  A
C2570      H2583   1.083       .  S
C2571      C2572   1.406       .  A
C2571      H2584   1.083       .  S
C2572      C2573   1.404       .  A
C2572      C2575   1.492       .  S
C2573      C2574   1.401       .  A
C2573      H2585   1.083       .  S
C2574      H2586   1.082       .  S
C2575      C2576   1.351       .  D
C2575      H2587   1.087       .  S
C2576      C2577   1.490       .  S
C2576      H2588   1.086       .  S
C2577      C2578   1.405       .  A
C2577      C2582   1.404       .  A
C2578      C2579   1.404       .  A
C2578      H2589   1.083       .  S
C2579      C2580   1.408       .  A
C2579      H2590   1.083       .  S
C2580      C2581   1.410       .  A
C2581      C2582   1.400       .  A
C2581      H2591   1.083       .  S
C2582      H2592   1.083       .  S
C2593      C2594   1.405       .  A
C2593      C2598   1.409       .  A
C2594      C2595   1.398       .  A
C2594      H2607   1.083       .  S
C2595      C2596   1.404       .  A
C2595      H2608   1.083       .  S
C2596      C2597   1.409       .  A
C2596      C2599   1.492       .  S
C2597      C2598   1.401       .  A
C2597      H2609   1.081       .  S
C2598      H2610   1.083       .  S
C2599      C2600   1.348       .  D
C2599      H2611   1.085       .  S
C2600      C2601   1.490       .  S
C2600      H2612   1.084       .  S
C2601      C2602   1.403       .  A
C2601      C2606   1.409       .  A
C2602      C2603   1.398       .  A
C2602      H2613   1.083       .  S
C2603      C2604   1.406       .  A
C2603      H2614   1.083       .  S
C2604      C2605   1.406       .  A
C2605      C2606   1.401       .  A
C2605      H2615   1.083       .  S
C2606      H2616   1.081       .  S
C2617      C2618   1.406       .  A
C2617      C2622   1.407       .  A
C2618      C2619   1.403       .  A
C2618      H2631   1.083       .  S
C2619      C2620   1.406       .  A
C2619      H2632   1.083       .  S
C2620      C2621   1.405       .  A
C2620      C2623   1.488       .  S
C2621      C2622   1.395       .  A
C2621      H2633   1.082       .  S
C2622      H2634   1.083       .  S
C2623      C2624   1.351       .  D
C2623      H2635   1.086       .  S
C2624      C2625   1.488       .  S
C2624      H2636   1.086       .  S
C2625      C2626   1.406       .  A
C2625      C2630   1.405       .  A
C2626      C2627   1.402       .  A
C2626      H2637   1.083       .  S
C2627      C2628   1.406       .  A
C2627      H2638   1.083       .  S
C2628      C2629   1.407       .  A
C2629      C2630   1.396       .  A
C2629      H2639   1.083       .  S
C2630      H2640   1.082       .  S
C2641      C2642   1.406       .  A
C2641      C2646   1.408       .  A
C2642      C2643   1.402       .  A
C2642      H2655   1.083       .  S
C2643      C2644   1.405       .  A
C2643      H2656   1.083       .  S
C2644      C2645   1.409       .  A
C2644      C2647   1.496       .  S
C2645      C2646   1.404       .  A
C2645      H2657   1.082       .  S
C2646      H2658   1.083       .  S
C2647      C2648   1.351       .  D
C2647      H2659   1.085       .  S
C2648      C2649   1.496       .  S
C2648      H2660   1.085       .  S
C2649      C2650   1.405       .  A
C2649      C2654   1.409       .  A
C2650      C2651   1.401       .  A
C2650      H2661   1.083       .  S
C2651      C2652   1.408       .  A
C2651      H2662   1.083       .  S
C2652      C2653   1.408       .  A
C2653      C2654   1.403       .  A
C2653      H2663   1.083       .  S
C2654      H2664   1.081       .  S
C2665      C2666   1.404       .  A
C2665      C2670   1.407       .  A
C2666      C2667   1.405       .  A
C2666      H2679   1.083       .  S
C2667      C2668   1.407       .  A
C2667      H2680   1.083       .  S
C2668      C2669   1.405       .  A
C2668      C2671   1.490       .  S
C2669      C2670   1.396       .  A
C2669      H2681   1.082       .  S
C2670      H2682   1.083       .  S
C2671      C2672   1.351   1_565  D
C2671      H2683   1.085       .  S
C2672      C2673   1.491       .  S
C2672      H2684   1.086       .  S
C2673      C2674   1.408       .  A
C2673      C2678   1.407       .  A
C2674      C2675   1.404       .  A
C2674      H2685   1.083       .  S
C2675      C2676   1.403       .  A
C2675      H2686   1.083       .  S
C2676      C2677   1.404       .  A
C2677      C2678   1.398       .  A
C2677      H2687   1.083       .  S
C2678      H2688   1.082       .  S
C2689      C2690   1.407       .  A
C2689      C2694   1.405       .  A
C2690      C2691   1.390       .  A
C2690      H2703   1.083       .  S
C2691      C2692   1.399       .  A
C2691      H2704   1.084       .  S
C2692      C2693   1.415       .  A
C2692      C2695   1.492       .  S
C2693      C2694   1.408       .  A
C2693      H2705   1.080   1_545  S
C2694      H2706   1.083   1_545  S
C2695      C2696   1.345   1_545  D
C2695      H2707   1.085       .  S
C2696      C2697   1.492       .  S
C2696      H2708   1.084       .  S
C2697      C2698   1.400       .  A
C2697      C2702   1.413   1_565  A
C2698      C2699   1.394       .  A
C2698      H2709   1.084       .  S
C2699      C2700   1.409       .  A
C2699      H2710   1.083       .  S
C2700      C2701   1.406       .  A
C2701      C2702   1.405   1_565  A
C2701      H2711   1.083   1_565  S
C2702      H2712   1.081       .  S
C2713      C2714   1.408       .  A
C2713      C2718   1.405       .  A
C2714      C2715   1.399       .  A
C2714      H2727   1.083       .  S
C2715      C2716   1.401       .  A
C2715      H2728   1.083       .  S
C2716      C2717   1.406       .  A
C2716      C2719   1.483       .  S
C2717      C2718   1.397       .  A
C2717      H2729   1.083       .  S
C2718      H2730   1.083       .  S
C2719      C2720   1.347       .  D
C2719      H2731   1.085       .  S
C2720      C2721   1.486       .  S
C2720      H2732   1.087       .  S
C2721      C2722   1.405       .  A
C2721      C2726   1.406       .  A
C2722      C2723   1.399       .  A
C2722      H2733   1.083       .  S
C2723      C2724   1.405       .  A
C2723      H2734   1.083       .  S
C2724      C2725   1.409       .  A
C2725      C2726   1.397       .  A
C2725      H2735   1.083       .  S
C2726      H2736   1.081       .  S
C2737      C2738   1.404       .  A
C2737      C2742   1.407       .  A
C2738      C2739   1.401       .  A
C2738      H2751   1.083       .  S
C2739      C2740   1.407       .  A
C2739      H2752   1.083       .  S
C2740      C2741   1.406       .  A
C2740      C2743   1.490       .  S
C2741      C2742   1.396       .  A
C2741      H2753   1.080       .  S
C2742      H2754   1.083       .  S
C2743      C2744   1.354       .  D
C2743      H2755   1.081       .  S
C2744      C2745   1.495       .  S
C2744      H2756   1.084       .  S
C2745      C2746   1.409       .  A
C2745      C2750   1.407       .  A
C2746      C2747   1.404       .  A
C2746      H2757   1.083       .  S
C2747      C2748   1.404       .  A
C2747      H2758   1.083       .  S
C2748      C2749   1.408       .  A
C2749      C2750   1.392       .  A
C2749      H2759   1.083       .  S
C2750      H2760   1.078       .  S
C2761      C2762   1.406       .  A
C2761      C2766   1.410       .  A
C2762      C2763   1.398       .  A
C2762      H2775   1.083       .  S
C2763      C2764   1.403       .  A
C2763      H2776   1.083       .  S
C2764      C2765   1.407       .  A
C2764      C2767   1.489       .  S
C2765      C2766   1.405       .  A
C2765      H2777   1.082       .  S
C2766      H2778   1.083       .  S
C2767      C2768   1.350       .  D
C2767      H2779   1.085       .  S
C2768      C2769   1.494       .  S
C2768      H2780   1.086       .  S
C2769      C2770   1.408       .  A
C2769      C2774   1.406       .  A
C2770      C2771   1.406       .  A
C2770      H2781   1.083       .  S
C2771      C2772   1.406       .  A
C2771      H2782   1.083       .  S
C2772      C2773   1.406       .  A
C2773      C2774   1.396       .  A
C2773      H2783   1.083       .  S
C2774      H2784   1.082       .  S
C2785      C2786   1.404       .  A
C2785      C2790   1.408       .  A
C2786      C2787   1.403       .  A
C2786      H2799   1.083       .  S
C2787      C2788   1.409       .  A
C2787      H2800   1.083   1_565  S
C2788      C2789   1.404       .  A
C2788      C2791   1.489   1_565  S
C2789      C2790   1.389       .  A
C2789      H2801   1.079       .  S
C2790      H2802   1.083       .  S
C2791      C2792   1.354       .  D
C2791      H2803   1.081       .  S
C2792      C2793   1.491       .  S
C2792      H2804   1.082   1_545  S
C2793      C2794   1.409       .  A
C2793      C2798   1.406       .  A
C2794      C2795   1.402       .  A
C2794      H2805   1.083       .  S
C2795      C2796   1.404       .  A
C2795      H2806   1.083       .  S
C2796      C2797   1.407       .  A
C2797      C2798   1.391       .  A
C2797      H2807   1.083       .  S
C2798      H2808   1.078       .  S
C2809      C2810   1.402       .  A
C2809      C2814   1.405       .  A
C2810      C2811   1.392       .  A
C2810      H2823   1.084       .  S
C2811      C2812   1.401       .  A
C2811      H2824   1.084       .  S
C2812      C2813   1.409       .  A
C2812      C2815   1.483       .  S
C2813      C2814   1.405       .  A
C2813      H2825   1.082       .  S
C2814      H2826   1.083       .  S
C2815      C2816   1.345       .  D
C2815      H2827   1.087       .  S
C2816      C2817   1.487       .  S
C2816      H2828   1.086       .  S
C2817      C2818   1.403       .  A
C2817      C2822   1.406       .  A
C2818      C2819   1.402       .  A
C2818      H2829   1.083       .  S
C2819      C2820   1.407       .  A
C2819      H2830   1.083       .  S
C2820      C2821   1.406       .  A
C2821      C2822   1.396       .  A
C2821      H2831   1.083   1_545  S
C2822      H2832   1.083       .  S
C2833      C2834   1.404       .  A
C2833      C2838   1.404       .  A
C2834      C2835   1.393       .  A
C2834      H2847   1.083       .  S
C2835      C2836   1.402       .  A
C2835      H2848   1.083       .  S
C2836      C2837   1.414       .  A
C2836      C2839   1.495       .  S
C2837      C2838   1.405       .  A
C2837      H2849   1.080       .  S
C2838      H2850   1.083       .  S
C2839      C2840   1.347       .  D
C2839      H2851   1.085       .  S
C2840      C2841   1.491       .  S
C2840      H2852   1.083       .  S
C2841      C2842   1.400       .  A
C2841      C2846   1.412       .  A
C2842      C2843   1.395       .  A
C2842      H2853   1.084       .  S
C2843      C2844   1.409       .  A
C2843      H2854   1.083       .  S
C2844      C2845   1.406       .  A
C2845      C2846   1.406       .  A
C2845      H2855   1.083       .  S
C2846      H2856   1.082       .  S
C2857      C2858   1.407       .  A
C2857      C2862   1.409       .  A
C2858      C2859   1.405       .  A
C2858      H2871   1.083       .  S
C2859      C2860   1.408       .  A
C2859      H2872   1.083       .  S
C2860      C2861   1.408       .  A
C2860      C2863   1.499       .  S
C2861      C2862   1.400       .  A
C2861      H2873   1.080       .  S
C2862      H2874   1.083       .  S
C2863      C2864   1.353       .  D
C2863      H2875   1.085       .  S
C2864      C2865   1.496       .  S
C2864      H2876   1.084       .  S
C2865      C2866   1.405       .  A
C2865      C2870   1.410       .  A
C2866      C2867   1.400       .  A
C2866      H2877   1.083       .  S
C2867      C2868   1.406       .  A
C2867      H2878   1.083       .  S
C2868      C2869   1.407       .  A
C2869      C2870   1.405       .  A
C2869      H2879   1.083       .  S
C2870      H2880   1.081       .  S
C2881      C2882   1.405       .  A
C2881      C2886   1.407       .  A
C2882      C2883   1.393       .  A
C2882      H2895   1.083       .  S
C2883      C2884   1.401       .  A
C2883      H2896   1.083       .  S
C2884      C2885   1.409       .  A
C2884      C2887   1.484       .  S
C2885      C2886   1.401       .  A
C2885      H2897   1.081       .  S
C2886      H2898   1.083       .  S
C2887      C2888   1.343       .  D
C2887      H2899   1.086   1_545  S
C2888      C2889   1.483   1_545  S
C2888      H2900   1.085       .  S
C2889      C2890   1.398       .  A
C2889      C2894   1.411       .  A
C2890      C2891   1.392       .  A
C2890      H2901   1.084   1_565  S
C2891      C2892   1.407       .  A
C2891      H2902   1.083       .  S
C2892      C2893   1.403       .  A
C2893      C2894   1.402       .  A
C2893      H2903   1.083       .  S
C2894      H2904   1.082       .  S
C2905      C2906   1.401       .  A
C2905      C2910   1.407       .  A
C2906      C2907   1.394       .  A
C2906      H2919   1.084       .  S
C2907      C2908   1.404       .  A
C2907      H2920   1.084       .  S
C2908      C2909   1.411       .  A
C2908      C2911   1.493       .  S
C2909      C2910   1.410       .  A
C2909      H2921   1.081       .  S
C2910      H2922   1.083       .  S
C2911      C2912   1.350       .  D
C2911      H2923   1.088       .  S
C2912      C2913   1.491       .  S
C2912      H2924   1.084       .  S
C2913      C2914   1.406       .  A
C2913      C2918   1.404       .  A
C2914      C2915   1.408       .  A
C2914      H2925   1.083       .  S
C2915      C2916   1.409       .  A
C2915      H2926   1.083       .  S
C2916      C2917   1.408   1_565  A
C2917      C2918   1.392   1_545  A
C2917      H2927   1.083       .  S
C2918      H2928   1.083       .  S
C2929      C2930   1.404       .  A
C2929      C2934   1.406       .  A
C2930      C2931   1.399       .  A
C2930      H2943   1.083       .  S
C2931      C2932   1.406       .  A
C2931      H2944   1.083       .  S
C2932      C2933   1.407       .  A
C2932      C2935   1.488       .  S
C2933      C2934   1.396       .  A
C2933      H2945   1.081   1_556  S
C2934      H2946   1.083       .  S
C2935      C2936   1.350   1_546  D
C2935      H2947   1.085   1_545  S
C2936      C2937   1.487       .  S
C2936      H2948   1.084   1_565  S
C2937      C2938   1.405       .  A
C2937      C2942   1.406       .  A
C2938      C2939   1.400       .  A
C2938      H2949   1.083   1_565  S
C2939      C2940   1.406       .  A
C2939      H2950   1.083       .  S
C2940      C2941   1.406       .  A
C2941      C2942   1.395       .  A
C2941      H2951   1.083       .  S
C2942      H2952   1.081   1_554  S
C2953      C2954   1.408       .  A
C2953      C2958   1.409       .  A
C2954      C2955   1.404       .  A
C2954      H2967   1.083       .  S
C2955      C2956   1.406       .  A
C2955      H2968   1.083       .  S
C2956      C2957   1.406       .  A
C2956      C2959   1.495       .  S
C2957      C2958   1.400       .  A
C2957      H2969   1.082       .  S
C2958      H2970   1.083       .  S
C2959      C2960   1.350       .  D
C2959      H2971   1.086       .  S
C2960      C2961   1.492       .  S
C2960      H2972   1.086       .  S
C2961      C2962   1.404       .  A
C2961      C2966   1.408       .  A
C2962      C2963   1.401       .  A
C2962      H2973   1.083       .  S
C2963      C2964   1.406       .  A
C2963      H2974   1.083       .  S
C2964      C2965   1.409       .  A
C2965      C2966   1.408       .  A
C2965      H2975   1.083       .  S
C2966      H2976   1.083       .  S
C2977      C2978   1.407       .  A
C2977      C2982   1.407       .  A
C2978      C2979   1.394       .  A
C2978      H2991   1.083       .  S
C2979      C2980   1.400       .  A
C2979      H2992   1.084       .  S
C2980      C2981   1.410       .  A
C2980      C2983   1.487       .  S
C2981      C2982   1.404       .  A
C2981      H2993   1.082       .  S
C2982      H2994   1.083       .  S
C2983      C2984   1.345       .  D
C2983      H2995   1.086       .  S
C2984      C2985   1.486       .  S
C2984      H2996   1.085       .  S
C2985      C2986   1.399       .  A
C2985      C2990   1.410       .  A
C2986      C2987   1.394       .  A
C2986      H2997   1.084       .  S
C2987      C2988   1.409       .  A
C2987      H2998   1.083       .  S
C2988      C2989   1.405       .  A
C2989      C2990   1.403       .  A
C2989      H2999   1.083       .  S
C2990      H3000   1.082       .  S
C3001      C3002   1.409   1_556  A
C3001      C3006   1.408       .  A
C3002      C3003   1.405       .  A
C3002      H3015   1.083       .  S
C3003      C3004   1.406       .  A
C3003      H3016   1.083       .  S
C3004      C3005   1.407   1_554  A
C3004      C3007   1.496       .  S
C3005      C3006   1.399       .  A
C3005      H3017   1.082       .  S
C3006      H3018   1.083       .  S
C3007      C3008   1.351       .  D
C3007      H3019   1.085       .  S
C3008      C3009   1.495       .  S
C3008      H3020   1.086   1_554  S
C3009      C3010   1.405       .  A
C3009      C3014   1.409       .  A
C3010      C3011   1.399       .  A
C3010      H3021   1.083       .  S
C3011      C3012   1.407       .  A
C3011      H3022   1.083       .  S
C3012      C3013   1.409       .  A
C3013      C3014   1.406       .  A
C3013      H3023   1.083       .  S
C3014      H3024   1.081       .  S
C3025      C3026   1.406       .  A
C3025      C3030   1.406       .  A
C3026      C3027   1.399       .  A
C3026      H3039   1.083       .  S
C3027      C3028   1.404       .  A
C3027      H3040   1.083       .  S
C3028      C3029   1.408       .  A
C3028      C3031   1.489       .  S
C3029      C3030   1.400       .  A
C3029      H3041   1.081       .  S
C3030      H3042   1.083       .  S
C3031      C3032   1.349       .  D
C3031      H3043   1.085       .  S
C3032      C3033   1.489       .  S
C3032      H3044   1.085       .  S
C3033      C3034   1.404       .  A
C3033      C3038   1.408       .  A
C3034      C3035   1.400       .  A
C3034      H3045   1.084       .  S
C3035      C3036   1.408       .  A
C3035      H3046   1.083       .  S
C3036      C3037   1.405       .  A
C3037      C3038   1.399       .  A
C3037      H3047   1.083       .  S
C3038      H3048   1.081       .  S
C3049      C3050   1.403       .  A
C3049      C3054   1.409       .  A
C3050      C3051   1.399       .  A
C3050      H3063   1.083       .  S
C3051      C3052   1.406       .  A
C3051      H3064   1.083       .  S
C3052      C3053   1.404       .  A
C3052      C3055   1.484       .  S
C3053      C3054   1.393       .  A
C3053      H3065   1.081       .  S
C3054      H3066   1.083       .  S
C3055      C3056   1.350       .  D
C3055      H3067   1.083       .  S
C3056      C3057   1.487       .  S
C3056      H3068   1.084       .  S
C3057      C3058   1.406       .  A
C3057      C3062   1.406       .  A
C3058      C3059   1.400       .  A
C3058      H3069   1.083       .  S
C3059      C3060   1.405       .  A
C3059      H3070   1.083       .  S
C3060      C3061   1.407       .  A
C3061      C3062   1.392       .  A
C3061      H3071   1.083       .  S
C3062      H3072   1.080       .  S
C3073      C3074   1.405       .  A
C3073      C3078   1.405       .  A
C3074      C3075   1.407       .  A
C3074      H3087   1.083       .  S
C3075      C3076   1.408       .  A
C3075      H3088   1.083       .  S
C3076      C3077   1.406       .  A
C3076      C3079   1.491       .  S
C3077      C3078   1.392       .  A
C3077      H3089   1.081       .  S
C3078      H3090   1.084       .  S
C3079      C3080   1.351       .  D
C3079      H3091   1.085       .  S
C3080      C3081   1.486       .  S
C3080      H3092   1.086       .  S
C3081      C3082   1.404       .  A
C3081      C3086   1.407       .  A
C3082      C3083   1.397       .  A
C3082      H3093   1.084       .  S
C3083      C3084   1.402       .  A
C3083      H3094   1.083       .  S
C3084      C3085   1.405       .  A
C3085      C3086   1.403       .  A
C3085      H3095   1.083       .  S
C3086      H3096   1.082       .  S
C3097      C3098   1.409       .  A
C3097      C3102   1.408       .  A
C3098      C3099   1.394       .  A
C3098      H3111   1.083       .  S
C3099      C3100   1.400       .  A
C3099      H3112   1.084       .  S
C3100      C3101   1.412       .  A
C3100      C3103   1.492       .  S
C3101      C3102   1.410       .  A
C3101      H3113   1.082       .  S
C3102      H3114   1.083       .  S
C3103      C3104   1.348       .  D
C3103      H3115   1.085       .  S
C3104      C3105   1.495       .  S
C3104      H3116   1.086       .  S
C3105      C3106   1.401       .  A
C3105      C3110   1.412       .  A
C3106      C3107   1.399       .  A
C3106      H3117   1.084       .  S
C3107      C3108   1.411       .  A
C3107      H3118   1.083       .  S
C3108      C3109   1.405       .  A
C3109      C3110   1.405       .  A
C3109      H3119   1.083       .  S
C3110      H3120   1.081       .  S
C3121      C3122   1.407       .  A
C3121      C3126   1.409       .  A
C3122      C3123   1.396       .  A
C3122      H3135   1.083       .  S
C3123      C3124   1.402       .  A
C3123      H3136   1.083       .  S
C3124      C3125   1.411       .  A
C3124      C3127   1.494       .  S
C3125      C3126   1.408       .  A
C3125      H3137   1.082       .  S
C3126      H3138   1.083       .  S
C3127      C3128   1.350       .  D
C3127      H3139   1.085       .  S
C3128      C3129   1.497       .  S
C3128      H3140   1.085       .  S
C3129      C3130   1.406       .  A
C3129      C3134   1.409       .  A
C3130      C3131   1.404       .  A
C3130      H3141   1.083       .  S
C3131      C3132   1.406       .  A
C3131      H3142   1.083       .  S
C3132      C3133   1.407       .  A
C3133      C3134   1.401       .  A
C3133      H3143   1.083       .  S
C3134      H3144   1.081       .  S
C3145      C3146   1.404       .  A
C3145      C3150   1.406       .  A
C3146      C3147   1.394       .  A
C3146      H3159   1.083       .  S
C3147      C3148   1.401       .  A
C3147      H3160   1.083       .  S
C3148      C3149   1.407       .  A
C3148      C3151   1.481       .  S
C3149      C3150   1.401       .  A
C3149      H3161   1.083       .  S
C3150      H3162   1.083       .  S
C3151      C3152   1.346       .  D
C3151      H3163   1.085       .  S
C3152      C3153   1.488       .  S
C3152      H3164   1.086       .  S
C3153      C3154   1.404       .  A
C3153      C3158   1.406       .  A
C3154      C3155   1.401       .  A
C3154      H3165   1.083       .  S
C3155      C3156   1.407       .  A
C3155      H3166   1.083       .  S
C3156      C3157   1.406       .  A
C3157      C3158   1.395       .  A
C3157      H3167   1.083       .  S
C3158      H3168   1.081       .  S
C3169      C3170   1.406       .  A
C3169      C3174   1.408       .  A
C3170      C3171   1.403       .  A
C3170      H3183   1.083       .  S
C3171      C3172   1.407       .  A
C3171      H3184   1.083       .  S
C3172      C3173   1.406       .  A
C3172      C3175   1.491       .  S
C3173      C3174   1.395       .  A
C3173      H3185   1.081       .  S
C3174      H3186   1.083       .  S
C3175      C3176   1.352       .  D
C3175      H3187   1.084       .  S
C3176      C3177   1.490       .  S
C3176      H3188   1.084       .  S
C3177      C3178   1.407       .  A
C3177      C3182   1.406       .  A
C3178      C3179   1.401       .  A
C3178      H3189   1.083       .  S
C3179      C3180   1.404       .  A
C3179      H3190   1.083       .  S
C3180      C3181   1.409       .  A
C3181      C3182   1.397       .  A
C3181      H3191   1.083       .  S
C3182      H3192   1.081       .  S
C3193      C3194   1.403       .  A
C3193      C3198   1.404       .  A
C3194      C3195   1.406       .  A
C3194      H3207   1.083       .  S
C3195      C3196   1.408       .  A
C3195      H3208   1.083       .  S
C3196      C3197   1.405       .  A
C3196      C3199   1.488       .  S
C3197      C3198   1.396       .  A
C3197      H3209   1.082       .  S
C3198      H3210   1.084       .  S
C3199      C3200   1.351       .  D
C3199      H3211   1.086       .  S
C3200      C3201   1.489       .  S
C3200      H3212   1.086       .  S
C3201      C3202   1.408       .  A
C3201      C3206   1.404       .  A
C3202      C3203   1.406       .  A
C3202      H3213   1.083       .  S
C3203      C3204   1.404       .  A
C3203      H3214   1.083       .  S
C3204      C3205   1.406       .  A
C3205      C3206   1.393       .  A
C3205      H3215   1.084       .  S
C3206      H3216   1.082       .  S
C3217      C3218   1.405       .  A
C3217      C3222   1.408       .  A
C3218      C3219   1.402       .  A
C3218      H3231   1.083       .  S
C3219      C3220   1.408       .  A
C3219      H3232   1.083       .  S
C3220      C3221   1.406       .  A
C3220      C3223   1.490       .  S
C3221      C3222   1.392       .  A
C3221      H3233   1.079       .  S
C3222      H3234   1.083       .  S
C3223      C3224   1.351       .  D
C3223      H3235   1.085       .  S
C3224      C3225   1.484       .  S
C3224      H3236   1.082       .  S
C3225      C3226   1.405       .  A
C3225      C3230   1.405       .  A
C3226      C3227   1.393       .  A
C3226      H3237   1.081       .  S
C3227      C3228   1.406       .  A
C3227      H3238   1.083       .  S
C3228      C3229   1.405       .  A
C3229      C3230   1.399       .  A
C3229      H3239   1.083       .  S
C3230      H3240   1.083       .  S
C3241      C3242   1.407       .  A
C3241      C3246   1.410       .  A
C3242      C3243   1.400       .  A
C3242      H3255   1.083       .  S
C3243      C3244   1.405       .  A
C3243      H3256   1.083       .  S
C3244      C3245   1.409       .  A
C3244      C3247   1.495       .  S
C3245      C3246   1.404       .  A
C3245      H3257   1.081       .  S
C3246      H3258   1.083       .  S
C3247      C3248   1.349       .  D
C3247      H3259   1.086       .  S
C3248      C3249   1.490       .  S
C3248      H3260   1.085       .  S
C3249      C3250   1.402       .  A
C3249      C3254   1.409       .  A
C3250      C3251   1.399       .  A
C3250      H3261   1.083       .  S
C3251      C3252   1.409       .  A
C3251      H3262   1.083       .  S
C3252      C3253   1.406       .  A
C3253      C3254   1.403       .  A
C3253      H3263   1.083       .  S
C3254      H3264   1.082       .  S
C3265      C3266   1.406       .  A
C3265      C3270   1.407       .  A
C3266      C3267   1.401       .  A
C3266      H3279   1.083       .  S
C3267      C3268   1.405       .  A
C3267      H3280   1.083       .  S
C3268      C3269   1.406       .  A
C3268      C3271   1.489       .  S
C3269      C3270   1.397       .  A
C3269      H3281   1.081       .  S
C3270      H3282   1.083       .  S
C3271      C3272   1.349       .  D
C3271      H3283   1.086       .  S
C3272      C3273   1.485       .  S
C3272      H3284   1.085       .  S
C3273      C3274   1.404       .  A
C3273      C3278   1.406       .  A
C3274      C3275   1.400       .  A
C3274      H3285   1.083       .  S
C3275      C3276   1.405       .  A
C3275      H3286   1.083       .  S
C3276      C3277   1.407       .  A
C3277      C3278   1.399       .  A
C3277      H3287   1.083       .  S
C3278      H3288   1.082       .  S
C3289      C3290   1.410       .  A
C3289      C3294   1.408       .  A
C3290      C3291   1.409       .  A
C3290      H3303   1.083       .  S
C3291      C3292   1.406       .  A
C3291      H3304   1.083       .  S
C3292      C3293   1.403       .  A
C3292      C3295   1.490       .  S
C3293      C3294   1.393       .  A
C3293      H3305   1.083       .  S
C3294      H3306   1.083       .  S
C3295      C3296   1.350       .  D
C3295      H3307   1.084       .  S
C3296      C3297   1.492       .  S
C3296      H3308   1.088       .  S
C3297      C3298   1.404       .  A
C3297      C3302   1.411       .  A
C3298      C3299   1.393       .  A
C3298      H3309   1.084       .  S
C3299      C3300   1.401       .  A
C3299      H3310   1.084       .  S
C3300      C3301   1.406       .  A
C3301      C3302   1.408       .  A
C3301      H3311   1.083       .  S
C3302      H3312   1.081       .  S
C3313      C3314   1.409       .  A
C3313      C3318   1.410       .  A
C3314      C3315   1.407       .  A
C3314      H3327   1.083       .  S
C3315      C3316   1.406       .  A
C3315      H3328   1.083       .  S
C3316      C3317   1.406       .  A
C3316      C3319   1.495       .  S
C3317      C3318   1.400       .  A
C3317      H3329   1.083       .  S
C3318      H3330   1.083       .  S
C3319      C3320   1.351       .  D
C3319      H3331   1.086       .  S
C3320      C3321   1.493       .  S
C3320      H3332   1.086       .  S
C3321      C3322   1.405       .  A
C3321      C3326   1.408       .  A
C3322      C3323   1.401       .  A
C3322      H3333   1.083       .  S
C3323      C3324   1.406       .  A
C3323      H3334   1.083       .  S
C3324      C3325   1.409       .  A
C3325      C3326   1.406       .  A
C3325      H3335   1.083       .  S
C3326      H3336   1.082       .  S
C3337      C3338   1.404       .  A
C3337      C3342   1.407       .  A
C3338      C3339   1.396       .  A
C3338      H3351   1.083       .  S
C3339      C3340   1.404       .  A
C3339      H3352   1.083       .  S
C3340      C3341   1.408       .  A
C3340      C3343   1.486       .  S
C3341      C3342   1.394       .  A
C3341      H3353   1.079   1_556  S
C3342      H3354   1.083       .  S
C3343      C3344   1.346   1_556  D
C3343      H3355   1.086       .  S
C3344      C3345   1.480       .  S
C3344      H3356   1.082       .  S
C3345      C3346   1.401       .  A
C3345      C3350   1.406       .  A
C3346      C3347   1.395       .  A
C3346      H3357   1.083       .  S
C3347      C3348   1.405       .  A
C3347      H3358   1.083       .  S
C3348      C3349   1.408       .  A
C3349      C3350   1.396       .  A
C3349      H3359   1.083       .  S
C3350      H3360   1.082   1_554  S
C3361      C3362   1.407       .  A
C3361      C3366   1.407       .  A
C3362      C3363   1.397       .  A
C3362      H3375   1.083       .  S
C3363      C3364   1.402       .  A
C3363      H3376   1.083       .  S
C3364      C3365   1.407       .  A
C3364      C3367   1.485       .  S
C3365      C3366   1.400       .  A
C3365      H3377   1.082       .  S
C3366      H3378   1.083       .  S
C3367      C3368   1.346       .  D
C3367      H3379   1.085       .  S
C3368      C3369   1.488       .  S
C3368      H3380   1.086       .  S
C3369      C3370   1.404       .  A
C3369      C3374   1.407       .  A
C3370      C3371   1.400       .  A
C3370      H3381   1.083       .  S
C3371      C3372   1.406       .  A
C3371      H3382   1.083       .  S
C3372      C3373   1.408       .  A
C3373      C3374   1.398       .  A
C3373      H3383   1.083       .  S
C3374      H3384   1.082       .  S
C3385      C3386   1.408       .  A
C3385      C3390   1.411       .  A
C3386      C3387   1.397       .  A
C3386      H3399   1.083       .  S
C3387      C3388   1.402       .  A
C3387      H3400   1.084       .  S
C3388      C3389   1.408       .  A
C3388      C3391   1.492       .  S
C3389      C3390   1.410       .  A
C3389      H3401   1.083       .  S
C3390      H3402   1.083       .  S
C3391      C3392   1.353       .  D
C3391      H3403   1.081       .  S
C3392      C3393   1.506       .  S
C3392      H3404   1.086       .  S
C3393      C3394   1.409       .  A
C3393      C3398   1.412       .  A
C3394      C3395   1.407       .  A
C3394      H3405   1.083       .  S
C3395      C3396   1.406       .  A
C3395      H3406   1.083       .  S
C3396      C3397   1.406       .  A
C3397      C3398   1.401       .  A
C3397      H3407   1.083       .  S
C3398      H3408   1.078       .  S
C3409      C3410   1.405       .  A
C3409      C3414   1.406       .  A
C3410      C3411   1.398       .  A
C3410      H3423   1.083       .  S
C3411      C3412   1.403       .  A
C3411      H3424   1.083       .  S
C3412      C3413   1.406       .  A
C3412      C3415   1.483       .  S
C3413      C3414   1.394       .  A
C3413      H3425   1.081       .  S
C3414      H3426   1.083       .  S
C3415      C3416   1.348       .  D
C3415      H3427   1.085       .  S
C3416      C3417   1.482       .  S
C3416      H3428   1.085       .  S
C3417      C3418   1.404       .  A
C3417      C3422   1.405       .  A
C3418      C3419   1.398       .  A
C3418      H3429   1.083       .  S
C3419      C3420   1.404       .  A
C3419      H3430   1.083       .  S
C3420      C3421   1.408       .  A
C3421      C3422   1.395       .  A
C3421      H3431   1.083       .  S
C3422      H3432   1.082       .  S
C3433      C3434   1.407       .  A
C3433      C3438   1.409       .  A
C3434      C3435   1.400       .  A
C3434      H3447   1.083       .  S
C3435      C3436   1.404       .  A
C3435      H3448   1.083       .  S
C3436      C3437   1.407       .  A
C3436      C3439   1.490       .  S
C3437      C3438   1.401       .  A
C3437      H3449   1.082       .  S
C3438      H3450   1.083       .  S
C3439      C3440   1.347       .  D
C3439      H3451   1.087       .  S
C3440      C3441   1.486       .  S
C3440      H3452   1.085       .  S
C3441      C3442   1.402       .  A
C3441      C3446   1.407       .  A
C3442      C3443   1.399       .  A
C3442      H3453   1.083       .  S
C3443      C3444   1.408       .  A
C3443      H3454   1.083       .  S
C3444      C3445   1.407       .  A
C3445      C3446   1.402       .  A
C3445      H3455   1.083       .  S
C3446      H3456   1.083       .  S
C3457      C3458   1.405       .  A
C3457      C3462   1.404       .  A
C3458      C3459   1.397       .  A
C3458      H3471   1.083       .  S
C3459      C3460   1.402       .  A
C3459      H3472   1.083       .  S
C3460      C3461   1.411       .  A
C3460      C3463   1.488       .  S
C3461      C3462   1.403       .  A
C3461      H3473   1.082       .  S
C3462      H3474   1.083       .  S
C3463      C3464   1.342       .  D
C3463      H3475   1.087       .  S
C3464      C3465   1.482       .  S
C3464      H3476   1.086       .  S
C3465      C3466   1.397       .  A
C3465      C3470   1.410       .  A
C3466      C3467   1.391       .  A
C3466      H3477   1.084       .  S
C3467      C3468   1.409       .  A
C3467      H3478   1.083       .  S
C3468      C3469   1.406       .  A
C3469      C3470   1.407       .  A
C3469      H3479   1.083       .  S
C3470      H3480   1.083       .  S
C3481      C3482   1.408       .  A
C3481      C3486   1.411       .  A
C3482      C3483   1.401       .  A
C3482      H3495   1.083       .  S
C3483      C3484   1.403       .  A
C3483      H3496   1.083       .  S
C3484      C3485   1.406       .  A
C3484      C3487   1.489       .  S
C3485      C3486   1.405       .  A
C3485      H3497   1.083       .  S
C3486      H3498   1.083       .  S
C3487      C3488   1.348       .  D
C3487      H3499   1.087       .  S
C3488      C3489   1.490       .  S
C3488      H3500   1.086       .  S
C3489      C3490   1.404       .  A
C3489      C3494   1.405       .  A
C3490      C3491   1.403       .  A
C3490      H3501   1.083       .  S
C3491      C3492   1.408       .  A
C3491      H3502   1.083       .  S
C3492      C3493   1.410       .  A
C3493      C3494   1.401       .  A
C3493      H3503   1.083       .  S
C3494      H3504   1.083       .  S
C3505      C3506   1.407       .  A
C3505      C3510   1.409       .  A
C3506      C3507   1.399       .  A
C3506      H3519   1.083       .  S
C3507      C3508   1.404       .  A
C3507      H3520   1.083       .  S
C3508      C3509   1.410       .  A
C3508      C3511   1.495       .  S
C3509      C3510   1.405       .  A
C3509      H3521   1.081       .  S
C3510      H3522   1.083       .  S
C3511      C3512   1.349       .  D
C3511      H3523   1.086       .  S
C3512      C3513   1.494       .  S
C3512      H3524   1.085       .  S
C3513      C3514   1.403       .  A
C3513      C3518   1.409       .  A
C3514      C3515   1.401       .  A
C3514      H3525   1.083       .  S
C3515      C3516   1.409       .  A
C3515      H3526   1.083       .  S
C3516      C3517   1.406       .  A
C3517      C3518   1.404       .  A
C3517      H3527   1.083       .  S
C3518      H3528   1.082       .  S
C3529      C3530   1.403       .  A
C3529      C3534   1.406       .  A
C3530      C3531   1.398       .  A
C3530      H3543   1.083       .  S
C3531      C3532   1.405       .  A
C3531      H3544   1.083       .  S
C3532      C3533   1.406       .  A
C3532      C3535   1.483       .  S
C3533      C3534   1.393       .  A
C3533      H3545   1.081       .  S
C3534      H3546   1.083       .  S
C3535      C3536   1.348       .  D
C3535      H3547   1.085       .  S
C3536      C3537   1.481       .  S
C3536      H3548   1.084       .  S
C3537      C3538   1.404       .  A
C3537      C3542   1.404       .  A
C3538      C3539   1.399       .  A
C3538      H3549   1.083       .  S
C3539      C3540   1.404       .  A
C3539      H3550   1.083       .  S
C3540      C3541   1.407       .  A
C3541      C3542   1.394       .  A
C3541      H3551   1.083       .  S
C3542      H3552   1.082       .  S
C3553      C3554   1.408   1_554  A
C3553      C3558   1.408       .  A
C3554      C3555   1.404       .  A
C3554      H3567   1.083       .  S
C3555      C3556   1.406       .  A
C3555      H3568   1.083       .  S
C3556      C3557   1.408   1_556  A
C3556      C3559   1.498       .  S
C3557      C3558   1.401       .  A
C3557      H3569   1.081       .  S
C3558      H3570   1.083       .  S
C3559      C3560   1.353       .  D
C3559      H3571   1.085       .  S
C3560      C3561   1.498       .  S
C3560      H3572   1.085   1_556  S
C3561      C3562   1.406       .  A
C3561      C3566   1.410       .  A
C3562      C3563   1.402       .  A
C3562      H3573   1.083       .  S
C3563      C3564   1.407       .  A
C3563      H3574   1.083       .  S
C3564      C3565   1.409       .  A
C3565      C3566   1.406       .  A
C3565      H3575   1.083       .  S
C3566      H3576   1.081       .  S
C3577      C3578   1.404       .  A
C3577      C3582   1.407       .  A
C3578      C3579   1.405       .  A
C3578      H3591   1.083       .  S
C3579      C3580   1.407       .  A
C3579      H3592   1.083       .  S
C3580      C3581   1.404       .  A
C3580      C3583   1.486       .  S
C3581      C3582   1.394       .  A
C3581      H3593   1.082       .  S
C3582      H3594   1.084       .  S
C3583      C3584   1.350       .  D
C3583      H3595   1.086       .  S
C3584      C3585   1.486       .  S
C3584      H3596   1.086       .  S
C3585      C3586   1.408       .  A
C3585      C3590   1.404       .  A
C3586      C3587   1.405       .  A
C3586      H3597   1.083       .  S
C3587      C3588   1.404       .  A
C3587      H3598   1.083       .  S
C3588      C3589   1.404       .  A
C3589      C3590   1.393       .  A
C3589      H3599   1.084       .  S
C3590      H3600   1.082       .  S
C3601      C3602   1.407       .  A
C3601      C3606   1.407       .  A
C3602      C3603   1.398       .  A
C3602      H3615   1.083       .  S
C3603      C3604   1.402       .  A
C3603      H3616   1.083       .  S
C3604      C3605   1.409       .  A
C3604      C3607   1.489       .  S
C3605      C3606   1.405       .  A
C3605      H3617   1.083       .  S
C3606      H3618   1.083       .  S
C3607      C3608   1.348       .  D
C3607      H3619   1.082       .  S
C3608      C3609   1.497       .  S
C3608      H3620   1.087       .  S
C3609      C3610   1.404       .  A
C3609      C3614   1.413       .  A
C3610      C3611   1.397       .  A
C3610      H3621   1.083       .  S
C3611      C3612   1.405       .  A
C3611      H3622   1.083       .  S
C3612      C3613   1.406       .  A
C3613      C3614   1.404       .  A
C3613      H3623   1.083       .  S
C3614      H3624   1.079       .  S
C3625      C3626   1.406       .  A
C3625      C3630   1.408       .  A
C3626      C3627   1.401       .  A
C3626      H3639   1.083       .  S
C3627      C3628   1.405       .  A
C3627      H3640   1.083       .  S
C3628      C3629   1.405       .  A
C3628      C3631   1.486       .  S
C3629      C3630   1.397       .  A
C3629      H3641   1.082       .  S
C3630      H3642   1.083       .  S
C3631      C3632   1.351       .  D
C3631      H3643   1.085       .  S
C3632      C3633   1.487       .  S
C3632      H3644   1.085       .  S
C3633      C3634   1.406       .  A
C3633      C3638   1.405       .  A
C3634      C3635   1.403       .  A
C3634      H3645   1.083       .  S
C3635      C3636   1.405       .  A
C3635      H3646   1.083       .  S
C3636      C3637   1.407       .  A
C3637      C3638   1.394       .  A
C3637      H3647   1.083       .  S
C3638      H3648   1.081       .  S
C3649      C3650   1.407       .  A
C3649      C3654   1.406       .  A
C3650      C3651   1.399       .  A
C3650      H3663   1.083       .  S
C3651      C3652   1.407       .  A
C3651      H3664   1.080       .  S
C3652      C3653   1.408       .  A
C3652      C3655   1.497       .  S
C3653      C3654   1.404       .  A
C3653      H3665   1.083       .  S
C3654      H3666   1.083       .  S
C3655      C3656   1.355       .  D
C3655      H3667   1.084       .  S
C3656      C3657   1.495       .  S
C3656      H3668   1.084       .  S
C3657      C3658   1.409       .  A
C3657      C3662   1.406       .  A
C3658      C3659   1.405       .  A
C3658      H3669   1.083       .  S
C3659      C3660   1.405       .  A
C3659      H3670   1.083       .  S
C3660      C3661   1.408       .  A
C3661      C3662   1.397       .  A
C3661      H3671   1.083       .  S
C3662      H3672   1.081       .  S
C3673      C3674   1.406       .  A
C3673      C3678   1.407       .  A
C3674      C3675   1.404       .  A
C3674      H3687   1.083       .  S
C3675      C3676   1.406       .  A
C3675      H3688   1.083       .  S
C3676      C3677   1.406       .  A
C3676      C3679   1.490       .  S
C3677      C3678   1.397       .  A
C3677      H3689   1.082       .  S
C3678      H3690   1.083       .  S
C3679      C3680   1.348       .  D
C3679      H3691   1.086       .  S
C3680      C3681   1.486       .  S
C3680      H3692   1.086       .  S
C3681      C3682   1.401       .  A
C3681      C3686   1.407       .  A
C3682      C3683   1.398       .  A
C3682      H3693   1.083       .  S
C3683      C3684   1.407       .  A
C3683      H3694   1.083       .  S
C3684      C3685   1.409       .  A
C3685      C3686   1.403       .  A
C3685      H3695   1.083       .  S
C3686      H3696   1.083       .  S
C3697      C3698   1.400       .  A
C3697      C3702   1.404       .  A
C3698      C3699   1.392       .  A
C3698      H3711   1.084       .  S
C3699      C3700   1.405       .  A
C3699      H3712   1.084       .  S
C3700      C3701   1.410       .  A
C3700      C3703   1.488       .  S
C3701      C3702   1.404       .  A
C3701      H3713   1.080       .  S
C3702      H3714   1.083       .  S
C3703      C3704   1.349       .  D
C3703      H3715   1.088       .  S
C3704      C3705   1.486       .  S
C3704      H3716   1.083       .  S
C3705      C3706   1.405       .  A
C3705      C3710   1.402       .  A
C3706      C3707   1.408       .  A
C3706      H3717   1.083       .  S
C3707      C3708   1.409       .  A
C3707      H3718   1.083       .  S
C3708      C3709   1.408       .  A
C3709      C3710   1.389       .  A
C3709      H3719   1.083       .  S
C3710      H3720   1.083       .  S
C3721      C3722   1.404       .  A
C3721      C3726   1.411       .  A
C3722      C3723   1.404       .  A
C3722      H3735   1.083   1_554  S
C3723      C3724   1.409       .  A
C3723      H3736   1.083       .  S
C3724      C3725   1.405       .  A
C3724      C3727   1.494       .  S
C3725      C3726   1.398       .  A
C3725      H3737   1.081       .  S
C3726      H3738   1.083       .  S
C3727      C3728   1.355       .  D
C3727      H3739   1.085       .  S
C3728      C3729   1.493       .  S
C3728      H3740   1.084       .  S
C3729      C3730   1.409       .  A
C3729      C3734   1.405       .  A
C3730      C3731   1.407       .  A
C3730      H3741   1.083       .  S
C3731      C3732   1.406       .  A
C3731      H3742   1.083       .  S
C3732      C3733   1.407       .  A
C3733      C3734   1.395       .  A
C3733      H3743   1.083       .  S
C3734      H3744   1.082       .  S
C3745      C3746   1.409       .  A
C3745      C3750   1.409       .  A
C3746      C3747   1.397       .  A
C3746      H3759   1.083       .  S
C3747      C3748   1.403       .  A
C3747      H3760   1.084       .  S
C3748      C3749   1.412       .  A
C3748      C3751   1.499       .  S
C3749      C3750   1.410       .  A
C3749      H3761   1.081       .  S
C3750      H3762   1.083       .  S
C3751      C3752   1.352       .  D
C3751      H3763   1.084       .  S
C3752      C3753   1.502       .  S
C3752      H3764   1.085       .  S
C3753      C3754   1.407       .  A
C3753      C3758   1.411       .  A
C3754      C3755   1.405       .  A
C3754      H3765   1.083       .  S
C3755      C3756   1.408       .  A
C3755      H3766   1.083       .  S
C3756      C3757   1.406       .  A
C3757      C3758   1.403       .  A
C3757      H3767   1.083       .  S
C3758      H3768   1.080       .  S
C3769      C3770   1.406       .  A
C3769      C3774   1.408       .  A
C3770      C3771   1.400       .  A
C3770      H3783   1.083       .  S
C3771      C3772   1.404       .  A
C3771      H3784   1.083       .  S
C3772      C3773   1.408       .  A
C3772      C3775   1.492       .  S
C3773      C3774   1.403       .  A
C3773      H3785   1.082       .  S
C3774      H3786   1.083       .  S
C3775      C3776   1.349       .  D
C3775      H3787   1.085       .  S
C3776      C3777   1.493       .  S
C3776      H3788   1.086       .  S
C3777      C3778   1.404       .  A
C3777      C3782   1.408       .  A
C3778      C3779   1.400       .  A
C3778      H3789   1.083       .  S
C3779      C3780   1.407       .  A
C3779      H3790   1.083       .  S
C3780      C3781   1.410       .  A
C3781      C3782   1.403       .  A
C3781      H3791   1.083       .  S
C3782      H3792   1.082       .  S
C3793      C3794   1.405       .  A
C3793      C3798   1.404       .  A
C3794      C3795   1.407       .  A
C3794      H3807   1.083       .  S
C3795      C3796   1.407       .  A
C3795      H3808   1.083       .  S
C3796      C3797   1.402       .  A
C3796      C3799   1.482       .  S
C3797      C3798   1.389       .  A
C3797      H3809   1.083       .  S
C3798      H3810   1.083       .  S
C3799      C3800   1.348       .  D
C3799      H3811   1.086       .  S
C3800      C3801   1.482       .  S
C3800      H3812   1.087       .  S
C3801      C3802   1.404       .  A
C3801      C3806   1.406       .  A
C3802      C3803   1.393       .  A
C3802      H3813   1.083       .  S
C3803      C3804   1.405       .  A
C3803      H3814   1.084       .  S
C3804      C3805   1.404       .  A
C3805      C3806   1.404       .  A
C3805      H3815   1.083       .  S
C3806      H3816   1.083       .  S
C3817      C3818   1.409       .  A
C3817      C3822   1.408       .  A
C3818      C3819   1.404       .  A
C3818      H3831   1.083       .  S
C3819      C3820   1.405       .  A
C3819      H3832   1.083       .  S
C3820      C3821   1.407       .  A
C3820      C3823   1.493       .  S
C3821      C3822   1.401       .  A
C3821      H3833   1.082       .  S
C3822      H3834   1.083       .  S
C3823      C3824   1.350       .  D
C3823      H3835   1.086       .  S
C3824      C3825   1.492       .  S
C3824      H3836   1.086       .  S
C3825      C3826   1.403       .  A
C3825      C3830   1.409       .  A
C3826      C3827   1.398       .  A
C3826      H3837   1.083       .  S
C3827      C3828   1.407       .  A
C3827      H3838   1.083       .  S
C3828      C3829   1.408       .  A
C3829      C3830   1.405       .  A
C3829      H3839   1.083       .  S
C3830      H3840   1.082       .  S
C3841      C3842   1.408       .  A
C3841      C3846   1.409       .  A
C3842      C3843   1.404       .  A
C3842      H3855   1.083       .  S
C3843      C3844   1.406       .  A
C3843      H3856   1.083       .  S
C3844      C3845   1.406       .  A
C3844      C3847   1.494       .  S
C3845      C3846   1.401       .  A
C3845      H3857   1.082       .  S
C3846      H3858   1.083       .  S
C3847      C3848   1.351       .  D
C3847      H3859   1.086       .  S
C3848      C3849   1.492       .  S
C3848      H3860   1.086       .  S
C3849      C3850   1.405       .  A
C3849      C3854   1.406       .  A
C3850      C3851   1.403       .  A
C3850      H3861   1.083       .  S
C3851      C3852   1.407       .  A
C3851      H3862   1.083       .  S
C3852      C3853   1.410       .  A
C3853      C3854   1.402       .  A
C3853      H3863   1.083       .  S
C3854      H3864   1.082       .  S
C3865      C3866   1.406       .  A
C3865      C3870   1.404       .  A
C3866      C3867   1.397       .  A
C3866      H3879   1.083       .  S
C3867      C3868   1.402       .  A
C3867      H3880   1.083       .  S
C3868      C3869   1.408       .  A
C3868      C3871   1.484   1_455  S
C3869      C3870   1.398       .  A
C3869      H3881   1.082       .  S
C3870      H3882   1.083       .  S
C3871      C3872   1.347       .  D
C3871      H3883   1.085       .  S
C3872      C3873   1.487       .  S
C3872      H3884   1.086       .  S
C3873      C3874   1.404       .  A
C3873      C3878   1.407       .  A
C3874      C3875   1.398       .  A
C3874      H3885   1.083       .  S
C3875      C3876   1.406       .  A
C3875      H3886   1.083       .  S
C3876      C3877   1.407       .  A
C3877      C3878   1.397       .  A
C3877      H3887   1.083       .  S
C3878      H3888   1.081       .  S
C3889      C3890   1.408       .  A
C3889      C3894   1.409       .  A
C3890      C3891   1.401       .  A
C3890      H3903   1.083       .  S
C3891      C3892   1.405       .  A
C3891      H3904   1.083   1_554  S
C3892      C3893   1.411       .  A
C3892      C3895   1.500       .  S
C3893      C3894   1.408       .  A
C3893      H3905   1.081       .  S
C3894      H3906   1.083       .  S
C3895      C3896   1.354       .  D
C3895      H3907   1.085   1_554  S
C3896      C3897   1.503       .  S
C3896      H3908   1.085       .  S
C3897      C3898   1.408       .  A
C3897      C3902   1.408   1_554  A
C3898      C3899   1.407       .  A
C3898      H3909   1.083       .  S
C3899      C3900   1.407   1_554  A
C3899      H3910   1.083       .  S
C3900      C3901   1.411       .  A
C3901      C3902   1.403       .  A
C3901      H3911   1.083       .  S
C3902      H3912   1.081       .  S
C3913      C3914   1.407       .  A
C3913      C3918   1.407       .  A
C3914      C3915   1.401       .  A
C3914      H3927   1.083       .  S
C3915      C3916   1.404       .  A
C3915      H3928   1.083       .  S
C3916      C3917   1.408       .  A
C3916      C3919   1.491       .  S
C3917      C3918   1.399       .  A
C3917      H3929   1.082       .  S
C3918      H3930   1.083       .  S
C3919      C3920   1.348   1_556  D
C3919      H3931   1.085       .  S
C3920      C3921   1.489       .  S
C3920      H3932   1.086       .  S
C3921      C3922   1.403       .  A
C3921      C3926   1.410   1_554  A
C3922      C3923   1.396       .  A
C3922      H3933   1.084       .  S
C3923      C3924   1.405       .  A
C3923      H3934   1.083       .  S
C3924      C3925   1.406       .  A
C3925      C3926   1.405   1_554  A
C3925      H3935   1.083   1_554  S
C3926      H3936   1.082       .  S
C3937      C3938   1.405       .  A
C3937      C3942   1.405       .  A
C3938      C3939   1.397       .  A
C3938      H3951   1.083       .  S
C3939      C3940   1.402       .  A
C3939      H3952   1.083       .  S
C3940      C3941   1.410       .  A
C3940      C3943   1.489       .  S
C3941      C3942   1.404       .  A
C3941      H3953   1.082       .  S
C3942      H3954   1.083       .  S
C3943      C3944   1.348       .  D
C3943      H3955   1.084       .  S
C3944      C3945   1.493       .  S
C3944      H3956   1.086       .  S
C3945      C3946   1.402       .  A
C3945      C3950   1.412       .  A
C3946      C3947   1.396       .  A
C3946      H3957   1.083       .  S
C3947      C3948   1.406       .  A
C3947      H3958   1.083       .  S
C3948      C3949   1.404       .  A
C3949      C3950   1.404       .  A
C3949      H3959   1.083       .  S
C3950      H3960   1.081       .  S
C3961      C3962   1.409   1_655  A
C3961      C3966   1.407       .  A
C3962      C3963   1.408       .  A
C3962      H3975   1.083       .  S
C3963      C3964   1.405       .  A
C3963      H3976   1.083       .  S
C3964      C3965   1.404       .  A
C3964      C3967   1.490       .  S
C3965      C3966   1.392   1_455  A
C3965      H3977   1.083       .  S
C3966      H3978   1.083       .  S
C3967      C3968   1.350       .  D
C3967      H3979   1.084       .  S
C3968      C3969   1.492       .  S
C3968      H3980   1.088       .  S
C3969      C3970   1.403       .  A
C3969      C3974   1.411       .  A
C3970      C3971   1.393       .  A
C3970      H3981   1.084       .  S
C3971      C3972   1.404       .  A
C3971      H3982   1.084       .  S
C3972      C3973   1.406       .  A
C3973      C3974   1.409       .  A
C3973      H3983   1.083       .  S
C3974      H3984   1.081       .  S
C3985      C3986   1.403       .  A
C3985      C3990   1.408       .  A
C3986      C3987   1.398       .  A
C3986      H3999   1.083       .  S
C3987      C3988   1.406       .  A
C3987      H4000   1.083       .  S
C3988      C3989   1.407       .  A
C3988      C3991   1.489       .  S
C3989      C3990   1.399       .  A
C3989      H4001   1.081       .  S
C3990      H4002   1.083       .  S
C3991      C3992   1.353       .  D
C3991      H4003   1.081       .  S
C3992      C3993   1.498       .  S
C3992      H4004   1.084       .  S
C3993      C3994   1.408       .  A
C3993      C3998   1.409       .  A
C3994      C3995   1.404       .  A
C3994      H4005   1.083       .  S
C3995      C3996   1.405       .  A
C3995      H4006   1.083       .  S
C3996      C3997   1.407       .  A
C3997      C3998   1.395       .  A
C3997      H4007   1.083       .  S
C3998      H4008   1.078       .  S
C4009      C4010   1.405       .  A
C4009      C4014   1.407       .  A
C4010      C4011   1.397       .  A
C4010      H4023   1.083       .  S
C4011      C4012   1.403       .  A
C4011      H4024   1.083       .  S
C4012      C4013   1.411       .  A
C4012      C4015   1.494       .  S
C4013      C4014   1.406       .  A
C4013      H4025   1.082       .  S
C4014      H4026   1.083       .  S
C4015      C4016   1.351       .  D
C4015      H4027   1.082       .  S
C4016      C4017   1.500       .  S
C4016      H4028   1.085       .  S
C4017      C4018   1.405       .  A
C4017      C4022   1.412       .  A
C4018      C4019   1.400       .  A
C4018      H4029   1.083       .  S
C4019      C4020   1.407       .  A
C4019      H4030   1.083       .  S
C4020      C4021   1.406       .  A
C4021      C4022   1.403       .  A
C4021      H4031   1.083       .  S
C4022      H4032   1.079       .  S
C4033      C4034   1.404       .  A
C4033      C4038   1.408       .  A
C4034      C4035   1.400       .  A
C4034      H4047   1.083       .  S
C4035      C4036   1.406       .  A
C4035      H4048   1.083       .  S
C4036      C4037   1.407       .  A
C4036      C4039   1.491       .  S
C4037      C4038   1.397       .  A
C4037      H4049   1.080       .  S
C4038      H4050   1.083       .  S
C4039      C4040   1.353       .  D
C4039      H4051   1.082       .  S
C4040      C4041   1.494       .  S
C4040      H4052   1.083       .  S
C4041      C4042   1.408       .  A
C4041      C4046   1.407       .  A
C4042      C4043   1.402       .  A
C4042      H4053   1.083       .  S
C4043      C4044   1.404       .  A
C4043      H4054   1.083       .  S
C4044      C4045   1.409       .  A
C4045      C4046   1.396       .  A
C4045      H4055   1.083       .  S
C4046      H4056   1.079       .  S
C4057      C4058   1.407       .  A
C4057      C4062   1.409       .  A
C4058      C4059   1.398       .  A
C4058      H4071   1.083       .  S
C4059      C4060   1.402       .  A
C4059      H4072   1.083       .  S
C4060      C4061   1.408       .  A
C4060      C4063   1.488       .  S
C4061      C4062   1.402       .  A
C4061      H4073   1.082       .  S
C4062      H4074   1.083       .  S
C4063      C4064   1.347       .  D
C4063      H4075   1.085       .  S
C4064      C4065   1.489       .  S
C4064      H4076   1.086       .  S
C4065      C4066   1.403       .  A
C4065      C4070   1.409       .  A
C4066      C4067   1.398       .  A
C4066      H4077   1.083       .  S
C4067      C4068   1.407       .  A
C4067      H4078   1.083       .  S
C4068      C4069   1.405       .  A
C4069      C4070   1.400       .  A
C4069      H4079   1.083       .  S
C4070      H4080   1.081       .  S
C4081      C4082   1.411       .  A
C4081      C4086   1.407   1_455  A
C4082      C4083   1.391       .  A
C4082      H4095   1.083       .  S
C4083      C4084   1.396       .  A
C4083      H4096   1.084       .  S
C4084      C4085   1.411   1_455  A
C4084      C4087   1.485   1_455  S
C4085      C4086   1.407       .  A
C4085      H4097   1.082       .  S
C4086      H4098   1.083       .  S
C4087      C4088   1.343       .  D
C4087      H4099   1.085   1_655  S
C4088      C4089   1.489       .  S
C4088      H4100   1.086       .  S
C4089      C4090   1.398       .  A
C4089      C4094   1.413       .  A
C4090      C4091   1.392       .  A
C4090      H4101   1.084       .  S
C4091      C4092   1.410       .  A
C4091      H4102   1.083       .  S
C4092      C4093   1.405       .  A
C4093      C4094   1.406       .  A
C4093      H4103   1.083       .  S
C4094      H4104   1.081   1_655  S
C4105      C4106   1.407       .  A
C4105      C4110   1.408       .  A
C4106      C4107   1.399       .  A
C4106      H4119   1.083       .  S
C4107      C4108   1.404       .  A
C4107      H4120   1.083       .  S
C4108      C4109   1.407       .  A
C4108      C4111   1.488       .  S
C4109      C4110   1.401       .  A
C4109      H4121   1.082       .  S
C4110      H4122   1.083       .  S
C4111      C4112   1.350       .  D
C4111      H4123   1.086       .  S
C4112      C4113   1.490       .  S
C4112      H4124   1.086       .  S
C4113      C4114   1.406       .  A
C4113      C4118   1.405       .  A
C4114      C4115   1.404       .  A
C4114      H4125   1.083       .  S
C4115      C4116   1.408       .  A
C4115      H4126   1.083       .  S
C4116      C4117   1.407       .  A
C4117      C4118   1.396       .  A
C4117      H4127   1.083       .  S
C4118      H4128   1.082       .  S
C4129      C4130   1.407       .  A
C4129      C4134   1.409       .  A
C4130      C4131   1.405       .  A
C4130      H4143   1.083       .  S
C4131      C4132   1.406       .  A
C4131      H4144   1.083       .  S
C4132      C4133   1.406       .  A
C4132      C4135   1.494       .  S
C4133      C4134   1.397       .  A
C4133      H4145   1.082       .  S
C4134      H4146   1.083       .  S
C4135      C4136   1.349       .  D
C4135      H4147   1.086       .  S
C4136      C4137   1.489       .  S
C4136      H4148   1.086       .  S
C4137      C4138   1.403       .  A
C4137      C4142   1.408       .  A
C4138      C4139   1.397       .  A
C4138      H4149   1.083       .  S
C4139      C4140   1.405       .  A
C4139      H4150   1.083       .  S
C4140      C4141   1.408       .  A
C4141      C4142   1.406       .  A
C4141      H4151   1.083       .  S
C4142      H4152   1.082       .  S
C4153      C4154   1.402       .  A
C4153      C4158   1.407       .  A
C4154      C4155   1.395       .  A
C4154      H4167   1.083       .  S
C4155      C4156   1.403       .  A
C4155      H4168   1.083       .  S
C4156      C4157   1.406       .  A
C4156      C4159   1.481       .  S
C4157      C4158   1.393       .  A
C4157      H4169   1.081       .  S
C4158      H4170   1.083       .  S
C4159      C4160   1.348       .  D
C4159      H4171   1.083       .  S
C4160      C4161   1.485       .  S
C4160      H4172   1.085       .  S
C4161      C4162   1.405       .  A
C4161      C4166   1.407       .  A
C4162      C4163   1.400       .  A
C4162      H4173   1.083       .  S
C4163      C4164   1.404       .  A
C4163      H4174   1.083       .  S
C4164      C4165   1.405       .  A
C4165      C4166   1.392       .  A
C4165      H4175   1.083       .  S
C4166      H4176   1.080       .  S
C4177      C4178   1.405       .  A
C4177      C4182   1.407       .  A
C4178      C4179   1.404       .  A
C4178      H4191   1.083       .  S
C4179      C4180   1.404       .  A
C4179      H4192   1.083       .  S
C4180      C4181   1.403       .  A
C4180      C4183   1.481       .  S
C4181      C4182   1.395       .  A
C4181      H4193   1.083       .  S
C4182      H4194   1.084       .  S
C4183      C4184   1.341       .  D
C4183      H4195   1.087       .  S
C4184      C4185   1.479       .  S
C4184      H4196   1.087       .  S
C4185      C4186   1.402       .  A
C4185      C4190   1.406       .  A
C4186      C4187   1.397       .  A
C4186      H4197   1.083       .  S
C4187      C4188   1.402       .  A
C4187      H4198   1.084       .  S
C4188      C4189   1.404       .  A
C4189      C4190   1.401       .  A
C4189      H4199   1.083       .  S
C4190      H4200   1.083       .  S
C4201      C4202   1.405       .  A
C4201      C4206   1.408       .  A
C4202      C4203   1.400       .  A
C4202      H4215   1.083       .  S
C4203      C4204   1.406       .  A
C4203      H4216   1.083       .  S
C4204      C4205   1.405       .  A
C4204      C4207   1.487       .  S
C4205      C4206   1.395       .  A
C4205      H4217   1.081       .  S
C4206      H4218   1.083       .  S
C4207      C4208   1.351       .  D
C4207      H4219   1.085       .  S
C4208      C4209   1.486       .  S
C4208      H4220   1.084       .  S
C4209      C4210   1.406       .  A
C4209      C4214   1.404       .  A
C4210      C4211   1.403       .  A
C4210      H4221   1.083       .  S
C4211      C4212   1.405   1_556  A
C4211      H4222   1.083   1_556  S
C4212      C4213   1.408   1_554  A
C4213      C4214   1.394       .  A
C4213      H4223   1.083       .  S
C4214      H4224   1.082       .  S
C4225      C4226   1.405       .  A
C4225      C4230   1.408       .  A
C4226      C4227   1.393       .  A
C4226      H4239   1.083       .  S
C4227      C4228   1.402       .  A
C4227      H4240   1.084       .  S
C4228      C4229   1.407       .  A
C4228      C4231   1.483       .  S
C4229      C4230   1.402       .  A
C4229      H4241   1.082       .  S
C4230      H4242   1.083       .  S
C4231      C4232   1.348       .  D
C4231      H4243   1.085       .  S
C4232      C4233   1.489       .  S
C4232      H4244   1.086       .  S
C4233      C4234   1.405       .  A
C4233      C4238   1.407       .  A
C4234      C4235   1.403       .  A
C4234      H4245   1.083       .  S
C4235      C4236   1.408       .  A
C4235      H4246   1.083       .  S
C4236      C4237   1.405       .  A
C4237      C4238   1.393       .  A
C4237      H4247   1.083       .  S
C4238      H4248   1.081       .  S
C4249      C4250   1.404       .  A
C4249      C4254   1.408       .  A
C4250      C4251   1.393       .  A
C4250      H4263   1.083       .  S
C4251      C4252   1.405       .  A
C4251      H4264   1.083       .  S
C4252      C4253   1.406       .  A
C4252      C4255   1.491       .  S
C4253      C4254   1.407       .  A
C4253      H4265   1.083       .  S
C4254      H4266   1.083       .  S
C4255      C4256   1.348       .  D
C4255      H4267   1.085       .  S
C4256      C4257   1.486   1_655  S
C4256      H4268   1.087       .  S
C4257      C4258   1.402       .  A
C4257      C4262   1.410       .  A
C4258      C4259   1.392       .  A
C4258      H4269   1.084       .  S
C4259      C4260   1.402       .  A
C4259      H4270   1.084       .  S
C4260      C4261   1.407       .  A
C4261      C4262   1.408       .  A
C4261      H4271   1.083       .  S
C4262      H4272   1.082       .  S
C4273      C4274   1.408       .  A
C4273      C4278   1.406       .  A
C4274      C4275   1.400       .  A
C4274      H4287   1.083       .  S
C4275      C4276   1.403       .  A
C4275      H4288   1.083       .  S
C4276      C4277   1.409       .  A
C4276      C4279   1.492       .  S
C4277      C4278   1.405       .  A
C4277      H4289   1.082       .  S
C4278      H4290   1.083       .  S
C4279      C4280   1.351       .  D
C4279      H4291   1.085       .  S
C4280      C4281   1.496       .  S
C4280      H4292   1.086       .  S
C4281      C4282   1.406       .  A
C4281      C4286   1.408       .  A
C4282      C4283   1.403       .  A
C4282      H4293   1.083       .  S
C4283      C4284   1.407       .  A
C4283      H4294   1.083       .  S
C4284      C4285   1.409       .  A
C4285      C4286   1.402       .  A
C4285      H4295   1.083       .  S
C4286      H4296   1.081       .  S
C4297      C4298   1.407       .  A
C4297      C4302   1.407       .  A
C4298      C4299   1.404       .  A
C4298      H4311   1.083       .  S
C4299      C4300   1.407       .  A
C4299      H4312   1.083       .  S
C4300      C4301   1.406       .  A
C4300      C4303   1.490       .  S
C4301      C4302   1.393       .  A
C4301      H4313   1.080       .  S
C4302      H4314   1.083       .  S
C4303      C4304   1.352       .  D
C4303      H4315   1.085       .  S
C4304      C4305   1.486       .  S
C4304      H4316   1.083       .  S
C4305      C4306   1.406       .  A
C4305      C4310   1.405       .  A
C4306      C4307   1.398       .  A
C4306      H4317   1.083       .  S
C4307      C4308   1.404       .  A
C4307      H4318   1.083       .  S
C4308      C4309   1.409       .  A
C4309      C4310   1.396       .  A
C4309      H4319   1.083       .  S
C4310      H4320   1.081       .  S
C4321      C4322   1.407       .  A
C4321      C4326   1.411       .  A
C4322      C4323   1.396       .  A
C4322      H4335   1.083       .  S
C4323      C4324   1.402       .  A
C4323      H4336   1.083       .  S
C4324      C4325   1.410       .  A
C4324      C4327   1.492       .  S
C4325      C4326   1.408       .  A
C4325      H4337   1.082       .  S
C4326      H4338   1.083       .  S
C4327      C4328   1.349       .  D
C4327      H4339   1.086       .  S
C4328      C4329   1.495       .  S
C4328      H4340   1.086       .  S
C4329      C4330   1.404       .  A
C4329      C4334   1.409       .  A
C4330      C4331   1.401       .  A
C4330      H4341   1.083       .  S
C4331      C4332   1.408       .  A
C4331      H4342   1.083       .  S
C4332      C4333   1.407       .  A
C4333      C4334   1.401       .  A
C4333      H4343   1.083       .  S
C4334      H4344   1.082       .  S
C4345      C4346   1.407       .  A
C4345      C4350   1.407       .  A
C4346      C4347   1.400       .  A
C4346      H4359   1.083       .  S
C4347      C4348   1.405       .  A
C4347      H4360   1.083       .  S
C4348      C4349   1.409       .  A
C4348      C4351   1.493       .  S
C4349      C4350   1.398       .  A
C4349      H4361   1.080       .  S
C4350      H4362   1.083       .  S
C4351      C4352   1.349       .  D
C4351      H4363   1.085       .  S
C4352      C4353   1.490       .  S
C4352      H4364   1.084       .  S
C4353      C4354   1.403       .  A
C4353      C4358   1.411       .  A
C4354      C4355   1.395       .  A
C4354      H4365   1.083       .  S
C4355      C4356   1.405       .  A
C4355      H4366   1.084       .  S
C4356      C4357   1.404       .  A
C4357      C4358   1.404       .  A
C4357      H4367   1.083       .  S
C4358      H4368   1.081       .  S
C4369      C4370   1.404       .  A
C4369      C4374   1.407       .  A
C4370      C4371   1.400       .  A
C4370      H4383   1.083       .  S
C4371      C4372   1.406       .  A
C4371      H4384   1.083       .  S
C4372      C4373   1.406       .  A
C4372      C4375   1.487       .  S
C4373      C4374   1.395       .  A
C4373      H4385   1.081       .  S
C4374      H4386   1.083       .  S
C4375      C4376   1.351       .  D
C4375      H4387   1.085       .  S
C4376      C4377   1.487       .  S
C4376      H4388   1.084       .  S
C4377      C4378   1.405       .  A
C4377      C4382   1.405       .  A
C4378      C4379   1.402       .  A
C4378      H4389   1.083       .  S
C4379      C4380   1.406       .  A
C4379      H4390   1.083       .  S
C4380      C4381   1.409       .  A
C4381      C4382   1.396       .  A
C4381      H4391   1.083       .  S
C4382      H4392   1.082       .  S
C4393      C4394   1.402       .  A
C4393      C4398   1.407       .  A
C4394      C4395   1.394       .  A
C4394      H4407   1.083       .  S
C4395      C4396   1.403       .  A
C4395      H4408   1.083   1_556  S
C4396      C4397   1.409       .  A
C4396      C4399   1.486       .  S
C4397      C4398   1.405       .  A
C4397      H4409   1.082       .  S
C4398      H4410   1.083       .  S
C4399      C4400   1.349       .  D
C4399      H4411   1.084   1_556  S
C4400      C4401   1.492       .  S
C4400      H4412   1.086       .  S
C4401      C4402   1.406       .  A
C4401      C4406   1.407   1_556  A
C4402      C4403   1.403       .  A
C4402      H4413   1.083       .  S
C4403      C4404   1.408   1_556  A
C4403      H4414   1.083       .  S
C4404      C4405   1.405       .  A
C4405      C4406   1.394       .  A
C4405      H4415   1.083       .  S
C4406      H4416   1.081       .  S
C4417      C4418   1.409       .  A
C4417      C4422   1.408       .  A
C4418      C4419   1.403   1_556  A
C4418      H4431   1.083   1_556  S
C4419      C4420   1.404   1_554  A
C4419      H4432   1.083       .  S
C4420      C4421   1.406       .  A
C4420      C4423   1.490   1_556  S
C4421      C4422   1.399       .  A
C4421      H4433   1.082       .  S
C4422      H4434   1.083       .  S
C4423      C4424   1.350       .  D
C4423      H4435   1.086       .  S
C4424      C4425   1.490       .  S
C4424      H4436   1.086   1_554  S
C4425      C4426   1.405       .  A
C4425      C4430   1.406       .  A
C4426      C4427   1.401       .  A
C4426      H4437   1.083       .  S
C4427      C4428   1.405       .  A
C4427      H4438   1.083       .  S
C4428      C4429   1.409       .  A
C4429      C4430   1.402       .  A
C4429      H4439   1.083       .  S
C4430      H4440   1.082       .  S
C4441      C4442   1.410       .  A
C4441      C4446   1.408       .  A
C4442      C4443   1.402       .  A
C4442      H4455   1.083       .  S
C4443      C4444   1.403       .  A
C4443      H4456   1.083       .  S
C4444      C4445   1.406       .  A
C4444      C4447   1.490       .  S
C4445      C4446   1.402       .  A
C4445      H4457   1.083       .  S
C4446      H4458   1.083       .  S
C4447      C4448   1.350       .  D
C4447      H4459   1.085       .  S
C4448      C4449   1.493       .  S
C4448      H4460   1.087       .  S
C4449      C4450   1.405       .  A
C4449      C4454   1.407       .  A
C4450      C4451   1.401       .  A
C4450      H4461   1.083       .  S
C4451      C4452   1.408       .  A
C4451      H4462   1.083       .  S
C4452      C4453   1.409       .  A
C4453      C4454   1.403       .  A
C4453      H4463   1.083       .  S
C4454      H4464   1.082       .  S
C4465      C4466   1.405       .  A
C4465      C4470   1.408       .  A
C4466      C4467   1.399       .  A
C4466      H4479   1.083       .  S
C4467      C4468   1.406       .  A
C4467      H4480   1.083       .  S
C4468      C4469   1.407       .  A
C4468      C4471   1.490       .  S
C4469      C4470   1.398       .  A
C4469      H4481   1.081       .  S
C4470      H4482   1.083       .  S
C4471      C4472   1.353       .  D
C4471      H4483   1.081       .  S
C4472      C4473   1.496       .  S
C4472      H4484   1.084       .  S
C4473      C4474   1.409       .  A
C4473      C4478   1.408       .  A
C4474      C4475   1.404       .  A
C4474      H4485   1.083       .  S
C4475      C4476   1.405       .  A
C4475      H4486   1.083       .  S
C4476      C4477   1.407       .  A
C4477      C4478   1.394       .  A
C4477      H4487   1.083       .  S
C4478      H4488   1.078       .  S
C4489      C4490   1.408       .  A
C4489      C4494   1.406       .  A
C4490      C4491   1.406       .  A
C4490      H4503   1.083       .  S
C4491      C4492   1.410       .  A
C4491      H4504   1.083       .  S
C4492      C4493   1.408       .  A
C4492      C4495   1.499       .  S
C4493      C4494   1.395       .  A
C4493      H4505   1.078       .  S
C4494      H4506   1.083       .  S
C4495      C4496   1.355       .  D
C4495      H4507   1.085       .  S
C4496      C4497   1.491       .  S
C4496      H4508   1.081       .  S
C4497      C4498   1.408       .  A
C4497      C4502   1.405       .  A
C4498      C4499   1.402       .  A
C4498      H4509   1.083       .  S
C4499      C4500   1.403       .  A
C4499      H4510   1.083       .  S
C4500      C4501   1.410       .  A
C4501      C4502   1.398       .  A
C4501      H4511   1.083       .  S
C4502      H4512   1.081       .  S
C4513      C4514   1.408       .  A
C4513      C4518   1.407       .  A
C4514      C4515   1.399       .  A
C4514      H4527   1.083       .  S
C4515      C4516   1.401       .  A
C4515      H4528   1.083       .  S
C4516      C4517   1.406       .  A
C4516      C4519   1.483       .  S
C4517      C4518   1.399       .  A
C4517      H4529   1.083       .  S
C4518      H4530   1.083       .  S
C4519      C4520   1.344       .  D
C4519      H4531   1.086       .  S
C4520      C4521   1.483       .  S
C4520      H4532   1.087       .  S
C4521      C4522   1.400       .  A
C4521      C4526   1.408       .  A
C4522      C4523   1.395       .  A
C4522      H4533   1.084       .  S
C4523      C4524   1.407       .  A
C4523      H4534   1.083       .  S
C4524      C4525   1.407       .  A
C4525      C4526   1.403       .  A
C4525      H4535   1.083       .  S
C4526      H4536   1.082       .  S
C4537      C4538   1.407       .  A
C4537      C4542   1.408       .  A
C4538      C4539   1.396       .  A
C4538      H4551   1.083       .  S
C4539      C4540   1.402       .  A
C4539      H4552   1.084       .  S
C4540      C4541   1.412       .  A
C4540      C4543   1.496       .  S
C4541      C4542   1.409       .  A
C4541      H4553   1.081       .  S
C4542      H4554   1.083       .  S
C4543      C4544   1.350       .  D
C4543      H4555   1.085       .  S
C4544      C4545   1.497       .  S
C4544      H4556   1.085       .  S
C4545      C4546   1.404       .  A
C4545      C4550   1.410       .  A
C4546      C4547   1.401       .  A
C4546      H4557   1.083       .  S
C4547      C4548   1.408       .  A
C4547      H4558   1.083       .  S
C4548      C4549   1.408       .  A
C4549      C4550   1.402       .  A
C4549      H4559   1.083       .  S
C4550      H4560   1.081       .  S
C4561      C4562   1.407       .  A
C4561      C4566   1.404       .  A
C4562      C4563   1.402   1_455  A
C4562      H4575   1.083       .  S
C4563      C4564   1.407       .  A
C4563      H4576   1.083       .  S
C4564      C4565   1.410   1_655  A
C4564      C4567   1.496       .  S
C4565      C4566   1.395       .  A
C4565      H4577   1.078       .  S
C4566      H4578   1.083       .  S
C4567      C4568   1.352       .  D
C4567      H4579   1.085       .  S
C4568      C4569   1.487       .  S
C4568      H4580   1.081       .  S
C4569      C4570   1.405       .  A
C4569      C4574   1.406       .  A
C4570      C4571   1.399       .  A
C4570      H4581   1.083       .  S
C4571      C4572   1.405       .  A
C4571      H4582   1.083       .  S
C4572      C4573   1.409       .  A
C4573      C4574   1.399       .  A
C4573      H4583   1.083       .  S
C4574      H4584   1.081       .  S
C4585      C4586   1.411       .  A
C4585      C4590   1.408       .  A
C4586      C4587   1.399       .  A
C4586      H4599   1.083       .  S
C4587      C4588   1.401       .  A
C4587      H4600   1.084       .  S
C4588      C4589   1.411       .  A
C4588      C4591   1.496       .  S
C4589      C4590   1.410       .  A
C4589      H4601   1.082       .  S
C4590      H4602   1.083       .  S
C4591      C4592   1.349       .  D
C4591      H4603   1.086       .  S
C4592      C4593   1.498       .  S
C4592      H4604   1.086       .  S
C4593      C4594   1.403       .  A
C4593      C4598   1.410       .  A
C4594      C4595   1.400       .  A
C4594      H4605   1.083       .  S
C4595      C4596   1.408       .  A
C4595      H4606   1.083       .  S
C4596      C4597   1.410       .  A
C4597      C4598   1.408       .  A
C4597      H4607   1.083       .  S
C4598      H4608   1.082       .  S
C4609      C4610   1.406       .  A
C4609      C4614   1.410       .  A
C4610      C4611   1.397       .  A
C4610      H4623   1.083       .  S
C4611      C4612   1.402       .  A
C4611      H4624   1.083       .  S
C4612      C4613   1.409       .  A
C4612      C4615   1.492       .  S
C4613      C4614   1.409       .  A
C4613      H4625   1.083       .  S
C4614      H4626   1.083       .  S
C4615      C4616   1.350       .  D
C4615      H4627   1.082       .  S
C4616      C4617   1.504       .  S
C4616      H4628   1.087       .  S
C4617      C4618   1.405       .  A
C4617      C4622   1.414       .  A
C4618      C4619   1.401       .  A
C4618      H4629   1.083       .  S
C4619      C4620   1.408       .  A
C4619      H4630   1.083       .  S
C4620      C4621   1.407       .  A
C4621      C4622   1.405       .  A
C4621      H4631   1.083       .  S
C4622      H4632   1.079       .  S
C4633      C4634   1.406       .  A
C4633      C4638   1.402       .  A
C4634      C4635   1.405       .  A
C4634      H4647   1.083       .  S
C4635      C4636   1.407       .  A
C4635      H4648   1.083       .  S
C4636      C4637   1.403       .  A
C4636      C4639   1.486       .  S
C4637      C4638   1.399       .  A
C4637      H4649   1.083       .  S
C4638      H4650   1.083       .  S
C4639      C4640   1.346       .  D
C4639      H4651   1.087       .  S
C4640      C4641   1.484       .  S
C4640      H4652   1.087       .  S
C4641      C4642   1.407       .  A
C4641      C4646   1.402       .  A
C4642      C4643   1.404       .  A
C4642      H4653   1.083       .  S
C4643      C4644   1.406       .  A
C4643      H4654   1.083       .  S
C4644      C4645   1.405       .  A
C4645      C4646   1.397       .  A
C4645      H4655   1.083       .  S
C4646      H4656   1.083       .  S
C4657      C4658   1.408       .  A
C4657      C4662   1.406       .  A
C4658      C4659   1.402       .  A
C4658      H4671   1.083       .  S
C4659      C4660   1.409       .  A
C4659      H4672   1.081       .  S
C4660      C4661   1.405       .  A
C4660      C4663   1.493       .  S
C4661      C4662   1.399       .  A
C4661      H4673   1.083       .  S
C4662      H4674   1.083       .  S
C4663      C4664   1.349       .  D
C4663      H4675   1.086       .  S
C4664      C4665   1.489   1_655  S
C4664      H4676   1.084       .  S
C4665      C4666   1.408       .  A
C4665      C4670   1.403       .  A
C4666      C4667   1.402       .  A
C4666      H4677   1.082       .  S
C4667      C4668   1.406       .  A
C4667      H4678   1.083       .  S
C4668      C4669   1.406       .  A
C4669      C4670   1.399       .  A
C4669      H4679   1.083       .  S
C4670      H4680   1.083       .  S
C4681      C4682   1.404       .  A
C4681      C4686   1.407       .  A
C4682      C4683   1.401       .  A
C4682      H4695   1.083       .  S
C4683      C4684   1.407       .  A
C4683      H4696   1.083       .  S
C4684      C4685   1.408       .  A
C4684      C4687   1.493       .  S
C4685      C4686   1.396       .  A
C4685      H4697   1.080   1_556  S
C4686      H4698   1.083       .  S
C4687      C4688   1.352   1_556  D
C4687      H4699   1.084   1_655  S
C4688      C4689   1.491   1_655  S
C4688      H4700   1.083       .  S
C4689      C4690   1.406       .  A
C4689      C4694   1.407       .  A
C4690      C4691   1.399       .  A
C4690      H4701   1.083       .  S
C4691      C4692   1.405       .  A
C4691      H4702   1.083       .  S
C4692      C4693   1.409       .  A
C4693      C4694   1.398       .  A
C4693      H4703   1.083       .  S
C4694      H4704   1.080   1_554  S
C4705      C4706   1.406   1_455  A
C4705      C4710   1.407       .  A
C4706      C4707   1.400       .  A
C4706      H4719   1.083       .  S
C4707      C4708   1.405       .  A
C4707      H4720   1.084       .  S
C4708      C4709   1.407   1_655  A
C4708      C4711   1.490       .  S
C4709      C4710   1.399       .  A
C4709      H4721   1.081       .  S
C4710      H4722   1.083       .  S
C4711      C4712   1.351       .  D
C4711      H4723   1.085       .  S
C4712      C4713   1.489       .  S
C4712      H4724   1.084   1_655  S
C4713      C4714   1.406       .  A
C4713      C4718   1.406       .  A
C4714      C4715   1.400       .  A
C4714      H4725   1.083   1_655  S
C4715      C4716   1.404       .  A
C4715      H4726   1.083       .  S
C4716      C4717   1.407       .  A
C4717      C4718   1.395       .  A
C4717      H4727   1.083       .  S
C4718      H4728   1.081       .  S
C4729      C4730   1.408       .  A
C4729      C4734   1.407       .  A
C4730      C4731   1.399       .  A
C4730      H4743   1.083       .  S
C4731      C4732   1.403       .  A
C4731      H4744   1.084       .  S
C4732      C4733   1.409       .  A
C4732      C4735   1.492       .  S
C4733      C4734   1.404       .  A
C4733      H4745   1.082       .  S
C4734      H4746   1.083       .  S
C4735      C4736   1.347       .  D
C4735      H4747   1.087       .  S
C4736      C4737   1.487       .  S
C4736      H4748   1.085       .  S
C4737      C4738   1.402       .  A
C4737      C4742   1.406       .  A
C4738      C4739   1.400       .  A
C4738      H4749   1.083       .  S
C4739      C4740   1.407       .  A
C4739      H4750   1.083       .  S
C4740      C4741   1.410       .  A
C4741      C4742   1.402       .  A
C4741      H4751   1.083       .  S
C4742      H4752   1.083       .  S
C4753      C4754   1.407       .  A
C4753      C4758   1.409       .  A
C4754      C4755   1.404       .  A
C4754      H4767   1.083   1_455  S
C4755      C4756   1.405       .  A
C4755      H4768   1.083       .  S
C4756      C4757   1.405       .  A
C4756      C4759   1.490       .  S
C4757      C4758   1.397       .  A
C4757      H4769   1.082       .  S
C4758      H4770   1.083       .  S
C4759      C4760   1.348       .  D
C4759      H4771   1.086       .  S
C4760      C4761   1.486       .  S
C4760      H4772   1.086       .  S
C4761      C4762   1.401       .  A
C4761      C4766   1.408       .  A
C4762      C4763   1.397       .  A
C4762      H4773   1.084       .  S
C4763      C4764   1.409       .  A
C4763      H4774   1.083       .  S
C4764      C4765   1.407       .  A
C4765      C4766   1.404       .  A
C4765      H4775   1.083       .  S
C4766      H4776   1.082       .  S
C4777      C4778   1.406       .  A
C4777      C4782   1.409       .  A
C4778      C4779   1.400       .  A
C4778      H4791   1.083       .  S
C4779      C4780   1.404       .  A
C4779      H4792   1.083       .  S
C4780      C4781   1.405       .  A
C4780      C4783   1.484       .  S
C4781      C4782   1.396       .  A
C4781      H4793   1.082       .  S
C4782      H4794   1.083       .  S
C4783      C4784   1.350       .  D
C4783      H4795   1.083       .  S
C4784      C4785   1.489       .  S
C4784      H4796   1.085       .  S
C4785      C4786   1.407       .  A
C4785      C4790   1.406       .  A
C4786      C4787   1.402       .  A
C4786      H4797   1.083       .  S
C4787      C4788   1.405       .  A
C4787      H4798   1.083       .  S
C4788      C4789   1.408       .  A
C4789      C4790   1.393       .  A
C4789      H4799   1.083       .  S
C4790      H4800   1.080       .  S
C4801      C4802   1.405   1_655  A
C4801      C4806   1.404       .  A
C4802      C4803   1.400       .  A
C4802      H4815   1.083       .  S
C4803      C4804   1.403       .  A
C4803      H4816   1.083       .  S
C4804      C4805   1.407       .  A
C4804      C4807   1.482       .  S
C4805      C4806   1.399   1_455  A
C4805      H4817   1.083       .  S
C4806      H4818   1.083       .  S
C4807      C4808   1.343       .  D
C4807      H4819   1.087       .  S
C4808      C4809   1.481       .  S
C4808      H4820   1.087       .  S
C4809      C4810   1.403       .  A
C4809      C4814   1.407       .  A
C4810      C4811   1.399       .  A
C4810      H4821   1.083       .  S
C4811      C4812   1.403       .  A
C4811      H4822   1.084       .  S
C4812      C4813   1.403       .  A
C4813      C4814   1.399       .  A
C4813      H4823   1.083       .  S
C4814      H4824   1.083       .  S
C4825      C4826   1.404   1_556  A
C4825      C4830   1.410   1_556  A
C4826      C4827   1.405       .  A
C4826      H4839   1.083   1_554  S
C4827      C4828   1.408       .  A
C4827      H4840   1.083       .  S
C4828      C4829   1.407       .  A
C4828      C4831   1.498       .  S
C4829      C4830   1.401       .  A
C4829      H4841   1.081       .  S
C4830      H4842   1.083       .  S
C4831      C4832   1.354       .  D
C4831      H4843   1.085       .  S
C4832      C4833   1.496       .  S
C4832      H4844   1.085       .  S
C4833      C4834   1.407       .  A
C4833      C4838   1.407       .  A
C4834      C4835   1.404       .  A
C4834      H4845   1.083       .  S
C4835      C4836   1.405       .  A
C4835      H4846   1.083       .  S
C4836      C4837   1.410       .  A
C4837      C4838   1.402       .  A
C4837      H4847   1.083       .  S
C4838      H4848   1.082       .  S
C4849      C4850   1.407       .  A
C4849      C4854   1.408       .  A
C4850      C4851   1.398       .  A
C4850      H4863   1.083       .  S
C4851      C4852   1.403       .  A
C4851      H4864   1.083       .  S
C4852      C4853   1.409       .  A
C4852      C4855   1.491       .  S
C4853      C4854   1.403       .  A
C4853      H4865   1.081       .  S
C4854      H4866   1.083       .  S
C4855      C4856   1.349       .  D
C4855      H4867   1.085       .  S
C4856      C4857   1.493       .  S
C4856      H4868   1.085       .  S
C4857      C4858   1.406       .  A
C4857      C4862   1.408       .  A
C4858      C4859   1.402       .  A
C4858      H4869   1.083       .  S
C4859      C4860   1.405       .  A
C4859      H4870   1.083       .  S
C4860      C4861   1.407       .  A
C4861      C4862   1.399       .  A
C4861      H4871   1.083       .  S
C4862      H4872   1.081       .  S
C4873      C4874   1.407       .  A
C4873      C4878   1.407       .  A
C4874      C4875   1.398       .  A
C4874      H4887   1.083       .  S
C4875      C4876   1.403       .  A
C4875      H4888   1.083       .  S
C4876      C4877   1.411       .  A
C4876      C4879   1.494       .  S
C4877      C4878   1.403       .  A
C4877      H4889   1.081       .  S
C4878      H4890   1.083       .  S
C4879      C4880   1.348       .  D
C4879      H4891   1.085       .  S
C4880      C4881   1.494       .  S
C4880      H4892   1.085       .  S
C4881      C4882   1.402       .  A
C4881      C4886   1.412       .  A
C4882      C4883   1.394       .  A
C4882      H4893   1.083       .  S
C4883      C4884   1.406       .  A
C4883      H4894   1.083       .  S
C4884      C4885   1.408       .  A
C4885      C4886   1.408       .  A
C4885      H4895   1.083       .  S
C4886      H4896   1.081       .  S
C4897      C4898   1.405       .  A
C4897      C4902   1.404       .  A
C4898      C4899   1.401       .  A
C4898      H4911   1.083       .  S
C4899      C4900   1.404       .  A
C4899      H4912   1.083       .  S
C4900      C4901   1.408       .  A
C4900      C4903   1.488       .  S
C4901      C4902   1.400       .  A
C4901      H4913   1.082       .  S
C4902      H4914   1.083       .  S
C4903      C4904   1.348       .  D
C4903      H4915   1.086       .  S
C4904      C4905   1.488       .  S
C4904      H4916   1.086       .  S
C4905      C4906   1.404       .  A
C4905      C4910   1.407       .  A
C4906      C4907   1.399       .  A
C4906      H4917   1.083       .  S
C4907      C4908   1.405       .  A
C4907      H4918   1.083       .  S
C4908      C4909   1.409       .  A
C4909      C4910   1.400       .  A
C4909      H4919   1.083       .  S
C4910      H4920   1.082       .  S
C4921      C4922   1.403       .  A
C4921      C4926   1.403       .  A
C4922      C4923   1.399       .  A
C4922      H4935   1.083       .  S
C4923      C4924   1.402       .  A
C4923      H4936   1.083       .  S
C4924      C4925   1.406       .  A
C4924      C4927   1.478       .  S
C4925      C4926   1.396       .  A
C4925      H4937   1.083       .  S
C4926      H4938   1.084       .  S
C4927      C4928   1.342       .  D
C4927      H4939   1.087       .  S
C4928      C4929   1.478   1_655  S
C4928      H4940   1.087       .  S
C4929      C4930   1.403       .  A
C4929      C4934   1.406       .  A
C4930      C4931   1.399       .  A
C4930      H4941   1.083       .  S
C4931      C4932   1.402       .  A
C4931      H4942   1.084       .  S
C4932      C4933   1.402       .  A
C4933      C4934   1.397       .  A
C4933      H4943   1.083       .  S
C4934      H4944   1.083       .  S
C4945      C4946   1.405       .  A
C4945      C4950   1.404       .  A
C4946      C4947   1.392       .  A
C4946      H4959   1.083       .  S
C4947      C4948   1.400       .  A
C4947      H4960   1.084       .  S
C4948      C4949   1.409       .  A
C4948      C4951   1.481       .  S
C4949      C4950   1.402       .  A
C4949      H4961   1.082       .  S
C4950      H4962   1.083       .  S
C4951      C4952   1.344       .  D
C4951      H4963   1.086       .  S
C4952      C4953   1.482       .  S
C4952      H4964   1.085       .  S
C4953      C4954   1.400       .  A
C4953      C4958   1.409       .  A
C4954      C4955   1.395       .  A
C4954      H4965   1.083       .  S
C4955      C4956   1.406       .  A
C4955      H4966   1.083       .  S
C4956      C4957   1.404       .  A
C4957      C4958   1.398       .  A
C4957      H4967   1.083       .  S
C4958      H4968   1.082       .  S
