geometry optimzed in LAMMPS
_audit_creation_date              2020-12-01 
_audit_creation_method            'lammps2cif' 
_symmetry_space_group_name_H-M    'P1' 
_symmetry_Int_Tables_number       1 
_symmetry_cell_setting            triclinic 
loop_ 
_symmetry_equiv_pos_as_xyz 
  x,y,z 
_cell_length_a                    50.09556165 
_cell_length_b                    50.10106830808686 
_cell_length_c                    39.875885110880986 
_cell_angle_alpha                 90.00588493195714 
_cell_angle_beta                  90.02396811449726 
_cell_angle_gamma                 120.03940843137443 
loop_ 
_atom_site_label 
_atom_site_type_symbol 
_atom_site_fract_x 
_atom_site_fract_y 
_atom_site_fract_z 
_atom_site_charge 
O1          O  0.56263130  0.46780743  0.09886018    -0.83800
O2          O  0.56275989  0.50885600  0.05064605    -0.80900
C3          C  0.53758709  0.50861658  0.05523851     0.99600
O4          O  0.53215663  0.51658085  0.08320564    -0.80900
O5          O  0.53950753  0.53602423  0.15016850    -0.83500
C6          C  0.53253569  0.51408211  0.17055889     1.04200
O7          O  0.54681913  0.49951669  0.17087067    -0.76300
O8          O  0.58220360  0.47631905  0.14971198    -0.76500
C9          C  0.56374458  0.45807626  0.12782443     1.04100
O10         O  0.62846445  0.50806919  0.10896032    -0.83800
O11         O  0.62547002  0.55183609  0.06911624    -0.80900
C12         C  0.61876484  0.57230532  0.06172711     0.99700
O13         O  0.59225074  0.56847925  0.06777214    -0.80900
O14         O  0.59986665  0.58500371  0.13277563    -0.83500
C15         C  0.60466339  0.58469337  0.16354244     1.04100
O16         O  0.59868452  0.55998397  0.17831863    -0.76300
O17         O  0.63516436  0.53825952  0.15159181    -0.76500
C18         C  0.64502064  0.52494242  0.13288969     1.04100
Cr19       Cr  0.59400858  0.51007114  0.08411982     1.93700
Cr20       Cr  0.56691123  0.54943999  0.10911690     1.93200
Cr21       Cr  0.59046831  0.51920341  0.15936765     1.39100
O22         O  0.58358691  0.52623401  0.11762216    -1.21600
O23         O  0.35322520  0.48972781  0.36973810    -0.83800
O24         O  0.35619580  0.44596464  0.40962614    -0.80900
C25         C  0.36290013  0.42549849  0.41703532     0.99600
O26         O  0.38942250  0.42933328  0.41103526    -0.80900
O27         O  0.38186048  0.41279613  0.34602204    -0.83500
C28         C  0.37711610  0.41311601  0.31524162     1.04200
O29         O  0.38311360  0.43783345  0.30046655    -0.76300
O30         O  0.34659343  0.45956633  0.32709732    -0.76500
C31         C  0.33670723  0.47287493  0.34577329     1.04100
O32         O  0.41905341  0.53001378  0.37992616    -0.83800
O33         O  0.41889068  0.48895497  0.42816162    -0.80900
C34         C  0.44406434  0.48918456  0.42360809     0.99700
O35         O  0.44951955  0.48121742  0.39565592    -0.80900
O36         O  0.44223828  0.46177440  0.32870212    -0.83500
C37         C  0.44924806  0.48373242  0.30832476     1.04100
O38         O  0.43497382  0.49830676  0.30798914    -0.76300
O39         O  0.39955371  0.52150231  0.32904082    -0.76500
C40         C  0.41796867  0.53975110  0.35095465     1.04100
Cr41       Cr  0.38766683  0.48773548  0.39464139     1.93700
Cr42       Cr  0.41479200  0.44836248  0.36971495     1.93200
Cr43       Cr  0.39130441  0.47861684  0.31940621     1.39100
O44         O  0.39812742  0.47157481  0.36116861    -1.21600
O45         O  0.55486067  0.76063399  0.26553988    -0.83800
O46         O  0.59573055  0.76038425  0.21735476    -0.80900
C47         C  0.62075689  0.78549105  0.22199834     0.99600
O48         O  0.63415516  0.79084107  0.24997520    -0.80900
O49         O  0.64614627  0.78334817  0.31695472    -0.83500
C50         C  0.63123365  0.79039867  0.33733404     1.04200
O51         O  0.60236848  0.77622469  0.33758081    -0.76300
O52         O  0.54372070  0.74105874  0.31636790    -0.76500
C53         C  0.54401449  0.75954529  0.29449377     1.04100
O54         O  0.52898476  0.69476457  0.27552490    -0.83800
O55         O  0.57568910  0.69760226  0.23568326    -0.80900
C56         C  0.60285033  0.70422125  0.22831406     0.99700
O57         O  0.62562559  0.73068514  0.23442134    -0.80900
O58         O  0.63443072  0.72290842  0.29941622    -0.83500
C59         C  0.62932263  0.71812456  0.33018007     1.04100
O60         O  0.61066483  0.72419917  0.34495947    -0.76300
O61         O  0.55237795  0.68793386  0.31816309    -0.76500
C62         C  0.52920068  0.67816736  0.29944426     1.04100
Cr63       Cr  0.56556970  0.72916021  0.25075239     1.93700
Cr64       Cr  0.63204096  0.75598917  0.27582778     1.93200
Cr65       Cr  0.57821639  0.73260086  0.32601141     1.39100
O66         O  0.59214609  0.73945959  0.28428224    -1.21600
O67         O  0.78632757  0.96974420  0.03649919    -0.83800
O68         O  0.73970882  0.96688419  0.07649901    -0.80900
C69         C  0.71255248  0.96023223  0.08394576     0.99600
O70         O  0.68979375  0.93372632  0.07794917    -0.80900
O71         O  0.68069520  0.94125972  0.51296735    -0.83500
C72         C  0.68571658  0.94599756  0.48218514     1.04200
O73         O  0.70439574  0.93997872  0.46736318    -0.76300
O74         O  0.76275206  0.97642565  0.49394378    -0.76500
C75         C  0.78598541  0.98628053  0.01258565     1.04100
O76         O  0.76061930  0.90391220  0.04661715    -0.83800
O77         O  0.71987197  0.90417784  0.09496651    -0.80900
C78         C  0.69487189  0.87902320  0.09042844     0.99700
O79         O  0.68138508  0.87358099  0.06250071    -0.80900
O80         O  0.66912022  0.88084475  0.99556688    -0.83500
C81         C  0.68402150  0.87381239  0.47514021     1.04100
O82         O  0.71288623  0.88807520  0.47475975    -0.76300
O83         O  0.77157767  0.92340442  0.49575035    -0.76500
C84         C  0.77137360  0.90496455  0.01761936     1.04100
Cr85       Cr  0.74987093  0.93535607  0.06142480     1.93700
Cr86       Cr  0.68329711  0.90831791  0.03660263     1.93200
Cr87       Cr  0.73697831  0.93172968  0.48621366     1.39100
O88         O  0.72317505  0.92492993  0.02799474    -1.21600
O89         O  0.88805370  0.42726651  0.09871346    -0.83800
O90         O  0.92892094  0.42709992  0.05046244    -0.80900
C91         C  0.95393614  0.45221545  0.05510608     0.99600
O92         O  0.96735087  0.45756140  0.08307188    -0.80900
O93         O  0.97940905  0.45004543  0.15001917    -0.83500
C94         C  0.96449898  0.45704969  0.17045501     1.04200
O95         O  0.93563213  0.44284872  0.17073437    -0.76300
O96         O  0.87697067  0.40765772  0.14953251    -0.76500
C97         C  0.87720941  0.42613284  0.12767913     1.04100
O98         O  0.86225114  0.36141161  0.10862121    -0.83800
O99         O  0.90894902  0.36431984  0.06872023    -0.80900
C100        C  0.93611071  0.37096041  0.06132224     0.99700
O101        O  0.95887747  0.39743076  0.06743498    -0.80900
O102        O  0.96775330  0.38964392  0.13240644    -0.83500
C103        C  0.96265027  0.38481865  0.16316656     1.04100
O104        O  0.94397743  0.39084900  0.17798135    -0.76300
O105        O  0.88568646  0.35456812  0.15120739    -0.76500
C106        C  0.86249803  0.34480077  0.13250520     1.04100
Cr107      Cr  0.89880220  0.39584095  0.08385634     1.93700
Cr108      Cr  0.96529763  0.42271138  0.10887103     1.93200
Cr109      Cr  0.91149857  0.39923252  0.15910370     1.39100
O110        O  0.92540397  0.40614049  0.11736356    -1.21600
O111        O  0.11969983  0.63640969  0.36977774    -0.83800
O112        O  0.07304153  0.63354881  0.40970047    -0.80900
C113        C  0.04587988  0.62690604  0.41710693     0.99600
O114        O  0.02311304  0.60042410  0.41103569    -0.80900
O115        O  0.01414203  0.60802363  0.34604511    -0.83500
C116        C  0.01919723  0.61276956  0.31527055     1.04200
O117        O  0.03788693  0.60675201  0.30047722    -0.76300
O118        O  0.09619488  0.64316389  0.32719609    -0.76500
C119        C  0.11940325  0.65297961  0.34587752     1.04100
O120        O  0.09393389  0.57056566  0.37982124    -0.83800
O121        O  0.05313664  0.57082861  0.42811201    -0.80900
C122        C  0.02812630  0.54569512  0.42353757     0.99700
O123        O  0.01468460  0.54027544  0.39558428    -0.80900
O124        O  0.00255480  0.54759569  0.32862094    -0.83500
C125        C  0.01747099  0.54056932  0.30821709     1.04100
O126        O  0.04633785  0.55483664  0.30786648    -0.76300
O127        O  0.10499810  0.59013943  0.32899175    -0.76500
C128        C  0.10473421  0.57165176  0.35084134     1.04100
Cr129      Cr  0.08319684  0.60201666  0.39462765     1.93700
Cr130      Cr  0.01667249  0.57504304  0.36968017     1.93200
Cr131      Cr  0.07042545  0.59847959  0.31939099     1.39100
O132        O  0.05655833  0.59163810  0.36114778    -1.21600
O133        O  0.85521628  0.76822288  0.43192765    -0.83800
O134        O  0.81403779  0.72725109  0.38383193    -0.80900
C135        C  0.81430523  0.70233980  0.38846280     0.99600
O136        O  0.80632883  0.68893572  0.41642795    -0.80900
O137        O  0.78698146  0.67689493  0.48343542    -0.83500
C138        C  0.80898284  0.69189198  0.50378721     1.04200
O139        O  0.82359671  0.72076060  0.00403498    -0.76300
O140        O  0.84687255  0.77933936  0.48280510    -0.76500
C141        C  0.86503619  0.77908131  0.46087509     1.04100
O142        O  0.81507696  0.79386863  0.44208379    -0.83800
O143        O  0.77114515  0.74702686  0.40232635    -0.80900
C144        C  0.75063830  0.71982979  0.39496516     0.99700
O145        O  0.75444775  0.69713707  0.40102248    -0.80900
O146        O  0.73803843  0.68830738  0.46605581    -0.83500
C147        C  0.73841527  0.69348757  0.99681340     1.04100
O148        O  0.76317523  0.71222942  0.01155074    -0.76300
O149        O  0.78498927  0.77044710  0.48479128    -0.76500
C150        C  0.79829961  0.79360871  0.46605779     1.04100
Cr151      Cr  0.81293477  0.75734055  0.41727130     1.93700
Cr152      Cr  0.77353621  0.69086883  0.44236571     1.93200
Cr153      Cr  0.80396365  0.74475548  0.99253820     1.39100
O154        O  0.79681328  0.73078354  0.45081414    -1.21600
O155        O  0.83327544  0.53707732  0.20313596    -0.83800
O156        O  0.87721735  0.58375725  0.24302150    -0.80900
C157        C  0.89778389  0.61091463  0.25043483     0.99600
O158        O  0.89409219  0.63367949  0.24439041    -0.80900
O159        O  0.91059795  0.64253874  0.17937902    -0.83500
C160        C  0.91022242  0.63746669  0.14859662     1.04200
O161        O  0.88545648  0.61880215  0.13382103    -0.76300
O162        O  0.86345870  0.56050608  0.16049076    -0.76500
C163        C  0.85007733  0.53732869  0.17919352     1.04100
O164        O  0.79327331  0.56289033  0.21326502    -0.83800
O165        O  0.83445720  0.60371558  0.26147289    -0.80900
C166        C  0.83433107  0.62870371  0.25688368     0.99700
O167        O  0.84240186  0.64215500  0.22895022    -0.80900
O168        O  0.86183532  0.65422492  0.16197305    -0.83500
C169        C  0.83983571  0.63931998  0.14159053     1.04100
O170        O  0.82512235  0.61045659  0.14129825    -0.76300
O171        O  0.80165027  0.55179758  0.16239257    -0.76500
C172        C  0.78347774  0.55207480  0.18429686     1.04100
Cr173      Cr  0.83549637  0.57361602  0.22799858     1.93700
Cr174      Cr  0.87513900  0.64010296  0.20303618     1.93200
Cr175      Cr  0.84461325  0.58632048  0.15275749     1.39100
O176        O  0.85174623  0.60021702  0.19451257    -1.21600
O177        O  0.68652772  0.15638253  0.20287075    -0.83800
O178        O  0.68953700  0.11267491  0.24281533    -0.80900
C179        C  0.69626580  0.09223316  0.25026351     0.99600
O180        O  0.72278419  0.09606615  0.24423057    -0.80900
O181        O  0.71522028  0.07947881  0.17924591    -0.83500
C182        C  0.71046896  0.07975694  0.14846384     1.04200
O183        O  0.71641623  0.10444482  0.13365466    -0.76300
O184        O  0.67986819  0.12615624  0.16028545    -0.76500
C185        C  0.66999124  0.13948276  0.17894708     1.04100
O186        O  0.75234551  0.19669693  0.21299549    -0.83800
O187        O  0.75221619  0.15570280  0.26129073    -0.80900
C188        C  0.77739560  0.15594890  0.25674025     0.99700
O189        O  0.78285878  0.14798087  0.22879435    -0.80900
O190        O  0.77557656  0.12848680  0.16186092    -0.83500
C191        C  0.78254792  0.15041311  0.14144688     1.04100
O192        O  0.76823435  0.16494813  0.14107892    -0.76300
O193        O  0.73279774  0.18811957  0.16212982    -0.76500
C194        C  0.75123680  0.20639569  0.18401050     1.04100
Cr195      Cr  0.72098192  0.15443444  0.22776999     1.93700
Cr196      Cr  0.74814022  0.11508200  0.20289074     1.93200
Cr197      Cr  0.72457439  0.14523464  0.15254471     1.39100
O198        O  0.73143882  0.13825269  0.19431562    -1.21600
O199        O  0.89591093  0.13446162  0.43197179    -0.83800
O200        O  0.89599093  0.17548345  0.38375200    -0.80900
C201        C  0.87082719  0.17525434  0.38837547     0.99600
O202        O  0.86542265  0.18322946  0.41634883    -0.80900
O203        O  0.87285422  0.20275035  0.48328540    -0.83500
C204        C  0.86589364  0.18081876  0.50368813     1.04200
O205        O  0.88016653  0.16624463  0.00398302    -0.76300
O206        O  0.91552048  0.14301530  0.48280908    -0.76500
C207        C  0.89705394  0.12475034  0.46093856     1.04100
O208        O  0.96175213  0.17472767  0.44199563    -0.83800
O209        O  0.95871984  0.21847333  0.40212982    -0.80900
C210        C  0.95200086  0.23893259  0.39473640     0.99700
O211        O  0.92548848  0.23510129  0.40079945    -0.80900
O212        O  0.93319689  0.25170387  0.46578114    -0.83500
C213        C  0.93798975  0.25142174  0.99655008     1.04100
O214        O  0.93203872  0.22672674  0.01134664    -0.76300
O215        O  0.96849502  0.20495677  0.98460914    -0.76500
C216        C  0.97832471  0.19160240  0.46591651     1.04100
Cr217      Cr  0.92727378  0.17671830  0.41718492     1.93700
Cr218      Cr  0.90020736  0.21611516  0.44218978     1.93200
Cr219      Cr  0.92380556  0.18591852  0.99243284     1.39100
O220        O  0.91688776  0.19291189  0.45068883    -1.21600
O221        O  0.18849169  0.43486622  0.26516123    -0.83800
O222        O  0.14732923  0.39391846  0.21700664    -0.80900
C223        C  0.14755620  0.36898823  0.22163709     0.99600
O224        O  0.13956035  0.35558439  0.24960081    -0.80900
O225        O  0.12017646  0.34356484  0.31658826    -0.83500
C226        C  0.14214632  0.35854950  0.33697551     1.04200
O227        O  0.15675970  0.38741329  0.33725913    -0.76300
O228        O  0.18009340  0.44600141  0.31600433    -0.76500
C229        C  0.19828130  0.44571969  0.29412130     1.04100
O230        O  0.14836698  0.46054734  0.27521579    -0.83800
O231        O  0.10445285  0.41372025  0.23542764    -0.80900
C232        C  0.08393614  0.38652651  0.22806241     0.99700
O233        O  0.08771431  0.36382023  0.23414936    -0.80900
O234        O  0.07125744  0.35498974  0.29916670    -0.83500
C235        C  0.07161007  0.36017695  0.32991772     1.04100
O236        O  0.09635559  0.37892122  0.34467393    -0.76300
O237        O  0.11820599  0.43712618  0.31787085    -0.76500
C238        C  0.13155266  0.46028845  0.29914630     1.04100
Cr239      Cr  0.14622468  0.42401130  0.25043231     1.93700
Cr240      Cr  0.10676607  0.35754142  0.27550975     1.93200
Cr241      Cr  0.13716414  0.41142714  0.32569471     1.39100
O242        O  0.13005333  0.39745367  0.28396743    -1.21600
O243        O  0.16656893  0.20371747  0.03640570    -0.83800
O244        O  0.21049387  0.25051978  0.07619823    -0.80900
C245        C  0.23102518  0.27770620  0.08356497     0.99600
O246        O  0.22726976  0.30042766  0.07748592    -0.80900
O247        O  0.24370803  0.30927017  0.51246694    -0.83500
C248        C  0.24334641  0.30410462  0.48171013     1.04200
O249        O  0.21860125  0.28535723  0.46695754    -0.76300
O250        O  0.19673577  0.22713201  0.49375114    -0.76500
C251        C  0.18338839  0.20397268  0.01248137     1.04100
O252        O  0.12647856  0.22944195  0.04647389    -0.83800
O253        O  0.16765445  0.27036055  0.09464129    -0.80900
C254        C  0.16745089  0.29530433  0.09002371     0.99700
O255        O  0.17544553  0.30870900  0.06206187    -0.80900
O256        O  0.19480969  0.32073181  0.99508279    -0.83500
C257        C  0.17282250  0.30575142  0.47469825     1.04100
O258        O  0.15821522  0.27688659  0.47438468    -0.76300
O259        O  0.13486567  0.21828970  0.49562996    -0.76500
C260        C  0.11668828  0.21859446  0.01751286     1.04100
Cr261      Cr  0.16873356  0.24026209  0.06119997     1.93700
Cr262      Cr  0.20822107  0.30673319  0.03614032     1.93200
Cr263      Cr  0.17779534  0.25285344  0.48593817     1.39100
O264        O  0.18491751  0.26682501  0.02767117    -1.21600
O265        O  0.22937656  0.80115098  0.26546336    -0.83800
O266        O  0.22941982  0.84213724  0.21722208    -0.80900
C267        C  0.20424133  0.84188050  0.22184484     0.99600
O268        O  0.19883172  0.84985305  0.24981801    -0.80900
O269        O  0.20626391  0.86941480  0.31674485    -0.83500
C270        C  0.19932980  0.84750331  0.33716713     1.04200
O271        O  0.21362670  0.83295234  0.33747877    -0.76300
O272        O  0.24897803  0.80972709  0.31630958    -0.76500
C273        C  0.23052882  0.79145222  0.29443333     1.04100
O274        O  0.29520059  0.84142954  0.27548143    -0.83800
O275        O  0.29214788  0.88516367  0.23560669    -0.80900
C276        C  0.28540752  0.90560700  0.22821002     0.99700
O277        O  0.25887905  0.90174292  0.23424778    -0.80900
O278        O  0.26658509  0.91838733  0.29921765    -0.83500
C279        C  0.27143001  0.91812900  0.32997973     1.04100
O280        O  0.26549634  0.89344609  0.34479114    -0.76300
O281        O  0.30194380  0.87167475  0.31806932    -0.76500
C282        C  0.31176974  0.85830947  0.29939997     1.04100
Cr283      Cr  0.26071658  0.84340394  0.25066441     1.93700
Cr284      Cr  0.23360876  0.88277007  0.27564490     1.93200
Cr285      Cr  0.25725827  0.85263029  0.32590612     1.39100
O286        O  0.25031808  0.85959510  0.28416106    -1.21600
O287        O  0.01998773  0.82307542  0.03621538    -0.83800
O288        O  0.02292919  0.77935809  0.07620319    -0.80900
C289        C  0.02962819  0.75889744  0.08366138     0.99600
O290        O  0.05614396  0.76271033  0.07766479    -0.80900
O291        O  0.04861462  0.74610039  0.51268183    -0.83500
C292        C  0.04387958  0.74638114  0.48189555     1.04200
O293        O  0.04985852  0.77107333  0.46707873    -0.76300
O294        O  0.01332428  0.79281981  0.49365875    -0.76500
C295        C  0.00346064  0.80617857  0.51228960     1.04100
O296        O  0.08579905  0.86334774  0.04637381    -0.83800
O297        O  0.08561372  0.82235270  0.09472136    -0.80900
C298        C  0.11078073  0.82256322  0.09020473     0.99700
O299        O  0.11625022  0.81458426  0.06226857    -0.80900
O300        O  0.10900165  0.79508653  0.99533945    -0.83500
C301        C  0.11599679  0.81700964  0.47491817     1.04100
O302        O  0.10169404  0.83155487  0.47451888    -0.76300
O303        O  0.06626628  0.85475647  0.49550221    -0.76500
C304        C  0.08469012  0.87303557  0.01738287     1.04100
Cr305      Cr  0.05440960  0.82110243  0.06115881     1.93700
Cr306      Cr  0.08153521  0.78170051  0.03634406     1.93200
Cr307      Cr  0.05803008  0.81186848  0.48594768     1.39100
O308        O  0.06486499  0.80489282  0.02773111    -1.21600
O309        O  0.52172368  0.10152458  0.09864761    -0.83800
O310        O  0.48052146  0.06050503  0.05059744    -0.80900
C311        C  0.48072765  0.03556836  0.05528876     0.99600
O312        O  0.47273037  0.02221274  0.08328019    -0.80900
O313        O  0.45337628  0.01033013  0.15030623    -0.83500
C314        C  0.47537569  0.02532919  0.17066140     1.04200
O315        O  0.49003105  0.05419393  0.17085907    -0.76300
O316        O  0.51339573  0.11275582  0.14947693    -0.76500
C317        C  0.53154649  0.11241810  0.12758259     1.04100
O318        O  0.48165799  0.12728515  0.10866389    -0.83800
O319        O  0.43770129  0.08040969  0.06896130    -0.80900
C320        C  0.41717396  0.05321199  0.06163654     0.99700
O321        O  0.42093528  0.03050409  0.06777479    -0.80900
O322        O  0.40451310  0.02183506  0.13279797    -0.83500
C323        C  0.40489140  0.02703282  0.16354757     1.04100
O324        O  0.42965407  0.04577153  0.17828074    -0.76300
O325        O  0.45153915  0.10395129  0.15137602    -0.76500
C326        C  0.46487904  0.12708267  0.13260716     1.04100
Cr327      Cr  0.47946603  0.09068481  0.08395018     1.93700
Cr328      Cr  0.43997867  0.02426958  0.10916851     1.93200
Cr329      Cr  0.47046351  0.07822757  0.15924361     1.39100
O330        O  0.46330891  0.06418971  0.11754200    -1.21600
O331        O  0.50002491  0.87047916  0.36984353    -0.83800
O332        O  0.54390739  0.91720091  0.40974040    -0.80900
C333        C  0.56443297  0.94437109  0.41717135     0.99600
O334        O  0.56068659  0.96710722  0.41113531    -0.80900
O335        O  0.57714215  0.97608133  0.34611497    -0.83500
C336        C  0.57678437  0.97097079  0.31534372     1.04200
O337        O  0.55203719  0.95225860  0.30057021    -0.76300
O338        O  0.53018284  0.89398352  0.32720854    -0.76500
C339        C  0.51685241  0.87079090  0.34589719     1.04100
O340        O  0.45989366  0.89613901  0.38002906    -0.83800
O341        O  0.50103391  0.93698319  0.42827055    -0.80900
C342        C  0.50082300  0.96193240  0.42372180     0.99700
O343        O  0.50884641  0.97540263  0.39579503    -0.80900
O344        O  0.52822325  0.98755994  0.32880193    -0.83500
C345        C  0.50625290  0.97261899  0.30839532     1.04100
O346        O  0.49163811  0.94375456  0.30804960    -0.76300
O347        O  0.46830843  0.88511157  0.32914212    -0.76500
C348        C  0.45011356  0.88533663  0.35105168     1.04100
Cr349      Cr  0.50215161  0.90696022  0.39474204     1.93700
Cr350      Cr  0.54163426  0.97348576  0.36982289     1.93200
Cr351      Cr  0.51123131  0.91970967  0.31950450     1.39100
O352        O  0.51833855  0.93359151  0.36127005    -1.21600
O353        O  0.45276353  0.30308704  0.20315315    -0.83800
O354        O  0.40606444  0.30019463  0.24302940    -0.80900
C355        C  0.37889537  0.29354459  0.25041133     0.99600
O356        O  0.35614063  0.26705185  0.24434993    -0.80900
O357        O  0.34716919  0.27462086  0.17934424    -0.83500
C358        C  0.35227948  0.27941331  0.14858084     1.04200
O359        O  0.37099004  0.27341357  0.13380731    -0.76300
O360        O  0.42927117  0.30982931  0.16055457    -0.76500
C361        C  0.45247028  0.31965457  0.17925042     1.04100
O362        O  0.42703870  0.23725111  0.21319287    -0.83800
O363        O  0.38620591  0.23748780  0.26145158    -0.80900
C364        C  0.36121817  0.21233825  0.25686780     0.99700
O365        O  0.34776927  0.20691359  0.22891886    -0.80900
O366        O  0.33564944  0.21422311  0.16195793    -0.83500
C367        C  0.35058216  0.20721947  0.14155702     1.04100
O368        O  0.37944922  0.22150334  0.14120640    -0.76300
O369        O  0.43810067  0.25681402  0.16235848    -0.76500
C370        C  0.43785860  0.23834544  0.18422016     1.04100
Cr371      Cr  0.41625893  0.26868201  0.22798039     1.93700
Cr372      Cr  0.34973454  0.24166788  0.20300445     1.93200
Cr373      Cr  0.40352006  0.26514311  0.15274130     1.39100
O374        O  0.38963008  0.25828847  0.19448865    -1.21600
O375        O  0.22136847  0.09387489  0.43203107    -0.83800
O376        O  0.26227966  0.09372657  0.38383043    -0.80900
C377        C  0.28727231  0.11885657  0.38848581     0.99600
O378        O  0.30067518  0.12421990  0.41645983    -0.80900
O379        O  0.31266389  0.11673872  0.48342860    -0.83500
C380        C  0.29770940  0.12372565  0.50381808     1.04200
O381        O  0.26884433  0.10947858  0.00409021    -0.76300
O382        O  0.21021939  0.07422610  0.48282443    -0.76500
C383        C  0.21050105  0.09273262  0.46098702     1.04100
O384        O  0.19560745  0.02801955  0.44193582    -0.83800
O385        O  0.24236200  0.03097248  0.40210311    -0.80900
C386        C  0.26954067  0.03763707  0.39475016     0.99700
O387        O  0.29228696  0.06411353  0.40088624    -0.80900
O388        O  0.30110521  0.05635678  0.46588189    -0.83500
C389        C  0.29595653  0.05151723  0.99663569     1.04100
O390        O  0.27725935  0.05753326  0.01141265    -0.76300
O391        O  0.21902873  0.02119766  0.98455210    -0.76500
C392        C  0.19586008  0.01141357  0.46581936     1.04100
Cr393      Cr  0.23215752  0.06246501  0.41720277     1.93700
Cr394      Cr  0.29863313  0.08939432  0.44229926     1.93200
Cr395      Cr  0.24477375  0.06586176  0.99246482     1.39100
O396        O  0.25872825  0.07278557  0.45074001    -1.21600
C397        C  0.30214162  0.13999909  0.36064201    -0.17000
C398        C  0.31593898  0.15631287  0.33680270     0.07100
C399        C  0.33263265  0.17493649  0.30861421     0.08900
C400        C  0.34640671  0.19123676  0.28475780    -0.17800
C401        C  0.31297183  0.14540501  0.03021294    -0.17000
C402        C  0.32074327  0.15876319  0.05662257     0.07100
C403        C  0.32749205  0.17206358  0.08885246     0.08900
C404        C  0.33528644  0.18546375  0.11523656    -0.17800
C405        C  0.46258815  0.15400313  0.14049973    -0.17000
C406        C  0.45980977  0.17527882  0.15063323     0.07100
C407        C  0.45500251  0.19878445  0.16416689     0.08900
C408        C  0.44882111  0.21765347  0.17492721    -0.17800
C409        C  0.31476504  0.04265417  0.01515278    -0.17000
C410        C  0.33594327  0.04079037  0.02684276     0.07100
C411        C  0.36393172  0.04336643  0.03774020     0.08900
C412        C  0.38861607  0.04765649  0.04723025    -0.17800
C413        C  0.48707123  0.02072267  0.02747627    -0.17000
C414        C  0.48969857  0.00697271  0.00365735     0.07100
C415        C  0.49179096  0.99036200  0.47547663     0.08900
C416        C  0.49443804  0.97666176  0.45162076    -0.17800
C417        C  0.49977831  0.98789476  0.28206629    -0.17000
C418        C  0.49412482  0.99566952  0.25569592     0.07100
C419        C  0.48749296  0.00240064  0.22348458     0.08900
C420        C  0.48184330  0.01013437  0.19708593    -0.17800
C421        C  0.10532775  0.90471086  0.00809362    -0.17000
C422        C  0.12417969  0.92978201  0.49734116     0.07100
C423        C  0.14767369  0.95811210  0.48381950     0.08900
C424        C  0.16894797  0.98218231  0.47370041    -0.17800
C425        C  0.34099733  0.86066504  0.30739035    -0.17000
C426        C  0.36505056  0.86344795  0.31755844     0.07100
C427        C  0.39336721  0.86823020  0.33108469     0.08900
C428        C  0.41843316  0.87438675  0.34181014    -0.17800
C429        C  0.37724182  0.00821933  0.18210035    -0.17000
C430        C  0.35419698  0.98698940  0.19372937     0.07100
C431        C  0.32878911  0.95893367  0.20449385     0.08900
C432        C  0.30840223  0.93420019  0.21387619    -0.17800
C433        C  0.28020194  0.94581070  0.34845554    -0.17000
C434        C  0.28198727  0.96884078  0.36007377     0.07100
C435        C  0.27934606  0.99422900  0.37088912     0.08900
C436        C  0.27504213  0.01461471  0.38033959    -0.17800
C437        C  0.13183878  0.82881445  0.11814955    -0.17000
C438        C  0.14813205  0.83127027  0.14199975     0.07100
C439        C  0.16677167  0.83311703  0.17015340     0.08900
C440        C  0.18310316  0.83559308  0.19397293    -0.17800
C441        C  0.17766540  0.84106146  0.36355760    -0.17000
C442        C  0.16434735  0.83551409  0.38997532     0.07100
C443        C  0.15110401  0.82903414  0.42222150     0.08900
C444        C  0.13774155  0.82347274  0.44861179    -0.17800
C445        C  0.19952749  0.11341337  0.47028264    -0.17000
C446        C  0.19333633  0.13228527  0.48100806     0.07100
C447        C  0.18851544  0.15580049  0.49448065     0.08900
C448        C  0.18571902  0.17707564  0.50457449    -0.17800
C449        C  0.33343142  0.28822491  0.13005457    -0.17000
C450        C  0.31224555  0.29007322  0.11835580     0.07100
C451        C  0.28426095  0.28750623  0.10744768     0.08900
C452        C  0.25958132  0.28323421  0.09795792    -0.17800
C453        C  0.15390649  0.35419748  0.19378276    -0.17000
C454        C  0.15651051  0.34046979  0.16993206     0.07100
C455        C  0.15853890  0.32384533  0.14173720     0.08900
C456        C  0.16112791  0.31010809  0.11788641    -0.17800
C457        C  0.16634382  0.32099863  0.44835875    -0.17000
C458        C  0.16074051  0.32878695  0.42197735     0.07100
C459        C  0.15419678  0.33555052  0.38975294     0.08900
C460        C  0.14860508  0.34332232  0.36335420    -0.17800
C461        C  0.00756378  0.19396991  0.47388291    -0.17000
C462        C  0.03162656  0.19675708  0.48402675     0.07100
C463        C  0.05994882  0.20153060  0.49753242     0.08900
C464        C  0.08501524  0.20767708  0.00825682    -0.17800
C465        C  0.04394034  0.34137729  0.34844935    -0.17000
C466        C  0.02087091  0.32019666  0.36010383     0.07100
C467        C  0.99542018  0.29219885  0.37092883     0.08900
C468        C  0.97500425  0.26750170  0.38036254    -0.17800
C469        C  0.64073347  0.13705617  0.17096290    -0.17000
C470        C  0.61665274  0.13424766  0.16086079     0.07100
C471        C  0.58830718  0.12947167  0.14743733     0.08900
C472        C  0.56322678  0.12333893  0.13678726    -0.17800
C473        C  0.60444186  0.98982217  0.29681340    -0.17000
C474        C  0.62747672  0.01101486  0.28511541     0.07100
C475        C  0.65288458  0.03900591  0.27420262     0.08900
C476        C  0.67327364  0.06368723  0.26469343    -0.17800
C477        C  0.84970260  0.16899378  0.36050299    -0.17000
C478        C  0.83338906  0.16653405  0.33667609     0.07100
C479        C  0.81476672  0.16469142  0.30851344     0.08900
C480        C  0.79847418  0.16222444  0.28466298    -0.17800
C481        C  0.80427613  0.15688227  0.11511764    -0.17000
C482        C  0.81763928  0.16242199  0.08872785     0.07100
C483        C  0.83089808  0.16886409  0.05648815     0.08900
C484        C  0.84422659  0.17438503  0.03007759    -0.17800
C485        C  0.00660717  0.73034657  0.09805087    -0.17000
C486        C  0.98623220  0.70563993  0.10751521     0.07100
C487        C  0.96086805  0.67759620  0.11838105     0.08900
C488        C  0.93786497  0.65635007  0.13006015    -0.17800
C489        C  0.89673016  0.79005207  0.47005486    -0.17000
C490        C  0.92181871  0.79621348  0.48070291     0.07100
C491        C  0.95016086  0.80099688  0.49414082     0.08900
C492        C  0.97422725  0.80378878  0.50426672    -0.17800
C493        C  0.82068597  0.68756740  0.36061207    -0.17000
C494        C  0.82332049  0.67384441  0.33677541     0.07100
C495        C  0.82538298  0.65722389  0.30859522     0.08900
C496        C  0.82799456  0.64349441  0.28475049    -0.17800
C497        C  0.83344381  0.65461429  0.11521957    -0.17000
C498        C  0.82781751  0.66235538  0.08881558     0.07100
C499        C  0.82117523  0.66901537  0.05657879     0.08900
C500        C  0.81549377  0.67670473  0.03017319    -0.17800
C501        C  0.20991603  0.75976080  0.30369636    -0.17000
C502        C  0.19107322  0.73466176  0.31439241     0.07100
C503        C  0.16757310  0.70629676  0.32784733     0.08900
C504        C  0.14630070  0.68221224  0.33794552    -0.17800
C505        C  0.03518822  0.71872173  0.46341194    -0.17000
C506        C  0.03345341  0.69571587  0.45178792     0.07100
C507        C  0.03612200  0.67034531  0.44096731     0.08900
C508        C  0.04041893  0.64995587  0.43151375    -0.17800
C509        C  0.11563587  0.55092137  0.34152620    -0.17000
C510        C  0.12175454  0.53201415  0.33075744     0.07100
C511        C  0.12649593  0.50847358  0.31722007     0.08900
C512        C  0.12924513  0.48718672  0.30707802    -0.17800
C513        C  0.92631632  0.61636917  0.26482369    -0.17000
C514        C  0.95100718  0.62064729  0.27427926     0.07100
C515        C  0.97903928  0.62328397  0.28511988     0.08900
C516        C  0.00028647  0.62151366  0.29676580    -0.17800
C517        C  0.77189239  0.23807880  0.17472992    -0.17000
C518        C  0.79076062  0.26315932  0.16400516     0.07100
C519        C  0.81428024  0.29150364  0.15051651     0.08900
C520        C  0.83556824  0.31557630  0.14040639    -0.17800
C521        C  0.94671410  0.27908540  0.01504253    -0.17000
C522        C  0.94847418  0.30210876  0.02664990     0.07100
C523        C  0.94584017  0.32750681  0.03744708     0.08900
C524        C  0.94156770  0.34791400  0.04689507    -0.17800
C525        C  0.86619626  0.44678181  0.13695941    -0.17000
C526        C  0.85997505  0.46563524  0.14766894     0.07100
C527        C  0.85514188  0.48914012  0.16113898     0.08900
C528        C  0.85236114  0.51041803  0.17124953    -0.17800
C529        C  0.05536938  0.38097123  0.21366648    -0.17000
C530        C  0.03067906  0.37667873  0.20418515     0.07100
C531        C  0.00268041  0.37410035  0.19330487     0.08900
C532        C  0.98148668  0.37595922  0.18164447    -0.17800
C533        C  0.01327348  0.52461305  0.45143903    -0.17000
C534        C  0.99944284  0.50831535  0.47527970     0.07100
C535        C  0.98267161  0.48967958  0.00343997     0.08900
C536        C  0.96882609  0.47335650  0.02725930    -0.17800
C537        C  0.00216294  0.51880288  0.28189722    -0.17000
C538        C  0.99436380  0.50537921  0.25552094     0.07100
C539        C  0.98759656  0.49205071  0.22329506     0.08900
C540        C  0.97980128  0.47869613  0.19687885    -0.17800
C541        C  0.87641546  0.09306031  0.47020812    -0.17000
C542        C  0.85757656  0.06796717  0.48093170     0.07100
C543        C  0.83410405  0.03960537  0.49443805     0.08900
C544        C  0.81286315  0.01551960  0.50458964    -0.17800
C545        C  0.70708578  0.98330096  0.09829385    -0.17000
C546        C  0.70277831  0.00370357  0.10767550     0.07100
C547        C  0.70008853  0.02908645  0.11840853     0.08900
C548        C  0.70180018  0.05209986  0.12998186    -0.17800
C549        C  0.78230613  0.88424954  0.00832172    -0.17000
C550        C  0.78845664  0.86534166  0.49760980     0.07100
C551        C  0.79322129  0.84179194  0.48413031     0.08900
C552        C  0.79598239  0.82050272  0.47401057    -0.17800
C553        C  0.66680182  0.95476417  0.46370581    -0.17000
C554        C  0.64559887  0.95660668  0.45203616     0.07100
C555        C  0.61762650  0.95407876  0.44112003     0.08900
C556        C  0.59296949  0.94985776  0.43160013    -0.17800
C557        C  0.51922159  0.84392804  0.33793669    -0.17000
C558        C  0.52204242  0.82266794  0.32784037     0.07100
C559        C  0.52687789  0.79914915  0.31440744     0.08900
C560        C  0.53306528  0.78025818  0.30373518    -0.17800
C561        C  0.64814509  0.70926811  0.34869316    -0.17000
C562        C  0.66934233  0.70740637  0.36034106     0.07100
C563        C  0.69734930  0.70997452  0.37117680     0.08900
C564        C  0.72204946  0.71425985  0.38061478    -0.17800
C565        C  0.68007872  0.85793443  0.11834213    -0.17000
C566        C  0.66627502  0.84161466  0.14218102     0.07100
C567        C  0.64951964  0.82295542  0.17033280     0.08900
C568        C  0.63566916  0.80662359  0.19414683    -0.17800
C569        C  0.64651773  0.81205748  0.36374617    -0.17000
C570        C  0.65425425  0.82539515  0.39017313     0.07100
C571        C  0.66093892  0.83867438  0.42241970     0.08900
C572        C  0.66869815  0.85206033  0.44881772    -0.17800
C573        C  0.22996468  0.45666448  0.30337308    -0.17000
C574        C  0.25503963  0.46282996  0.31408871     0.07100
C575        C  0.28338105  0.46764567  0.32759553     0.08900
C576        C  0.30745647  0.47047028  0.33775724    -0.17800
C577        C  0.33987312  0.39691616  0.43135615    -0.17000
C578        C  0.31946544  0.37219884  0.44074751     0.07100
C579        C  0.29404330  0.34416442  0.45153266     0.08900
C580        C  0.27099804  0.32294361  0.46317159    -0.17800
C581        C  0.50225369  0.64895881  0.30736449    -0.17000
C582        C  0.48097139  0.62489235  0.31750049     0.07100
C583        C  0.45747128  0.59654364  0.33100768     0.08900
C584        C  0.43861885  0.57145129  0.34172388    -0.17800
C585        C  0.36837612  0.38546341  0.29671502    -0.17000
C586        C  0.36657390  0.36243603  0.28506065     0.07100
C587        C  0.36916222  0.33702077  0.27422330     0.08900
C588        C  0.37342047  0.31660153  0.26478150    -0.17800
C589        C  0.67428083  0.52735697  0.14083665    -0.17000
C590        C  0.69836886  0.53018409  0.15094198     0.07100
C591        C  0.72672062  0.53499665  0.16439165     0.08900
C592        C  0.75180044  0.54115395  0.17506971    -0.17800
C593        C  0.64178501  0.60087236  0.04736095    -0.17000
C594        C  0.66222123  0.62555171  0.03790881     0.07100
C595        C  0.68768915  0.65352281  0.02704747     0.08900
C596        C  0.71075824  0.67468649  0.01536788    -0.17800
C597        C  0.47936581  0.34889187  0.17132884    -0.17000
C598        C  0.50065141  0.37296917  0.16123392     0.07100
C599        C  0.52418452  0.40131407  0.14777471     0.08900
C600        C  0.54306989  0.42639482  0.13707490    -0.17800
C601        C  0.61343528  0.61234927  0.18205883    -0.17000
C602        C  0.61522427  0.63537418  0.19368960     0.07100
C603        C  0.61258890  0.66076486  0.20449101     0.08900
C604        C  0.60830221  0.68116423  0.21392267    -0.17800
C605        C  0.46515655  0.49545840  0.45152649    -0.17000
C606        C  0.48147812  0.49794767  0.47536234     0.07100
C607        C  0.50013912  0.49984174  0.00351618     0.08900
C608        C  0.51646945  0.50233559  0.02734461    -0.17800
C609        C  0.51085326  0.50763478  0.19692834    -0.17000
C610        C  0.49753193  0.50212006  0.22334019     0.07100
C611        C  0.48430171  0.49570150  0.25558974     0.08900
C612        C  0.47096161  0.49018483  0.28198943    -0.17800
O613        O  0.56262742  0.46780289  0.59886329    -0.83800
O614        O  0.56275897  0.50885030  0.55064566    -0.80900
C615        C  0.53758628  0.50861139  0.55523708     0.99600
O616        O  0.53215614  0.51657749  0.58320332    -0.80900
O617        O  0.53950731  0.53602553  0.65016473    -0.83500
C618        C  0.53253524  0.51408515  0.67055762     1.04200
O619        O  0.54681767  0.49951881  0.67087168    -0.76300
O620        O  0.58219828  0.47631602  0.64971604    -0.76500
C621        C  0.56373963  0.45807261  0.62782840     1.04100
O622        O  0.62846027  0.50806179  0.60896338    -0.83800
O623        O  0.62546958  0.55182921  0.56911610    -0.80900
C624        C  0.61876564  0.57229896  0.56172509     0.99700
O625        O  0.59225155  0.56847381  0.56776813    -0.80900
O626        O  0.59986702  0.58500249  0.63277032    -0.83500
C627        C  0.60466401  0.58469386  0.66353732     1.04100
O628        O  0.59868530  0.55998524  0.67831534    -0.76300
O629        O  0.63516222  0.53825532  0.65159221    -0.76500
C630        C  0.64501707  0.52493576  0.63289172     1.04100
Cr631      Cr  0.59400629  0.51006533  0.58412119     1.93700
Cr632      Cr  0.56691122  0.54943766  0.60911326     1.93200
Cr633      Cr  0.59046642  0.51920234  0.65936812     1.39100
O634        O  0.58358552  0.52623094  0.61762171    -1.21600
O635        O  0.35322333  0.48972796  0.86973714    -0.83800
O636        O  0.35619786  0.44596799  0.90962754    -0.80900
C637        C  0.36290410  0.42550328  0.91703767     0.99600
O638        O  0.38942706  0.42933970  0.91103753    -0.80900
O639        O  0.38186646  0.41280056  0.84602497    -0.83500
C640        C  0.37712046  0.41311878  0.81524483     1.04200
O641        O  0.38311575  0.43783515  0.80046867    -0.76300
O642        O  0.34659289  0.45956528  0.82709804    -0.76500
C643        C  0.33670562  0.47287381  0.84577276     1.04100
O644        O  0.41905107  0.53001747  0.87992402    -0.83800
O645        O  0.41889174  0.48896203  0.92816197    -0.80900
C646        C  0.44406617  0.48919315  0.92360902     0.99700
O647        O  0.44952238  0.48122649  0.89565713    -0.80900
O648        O  0.44224246  0.46178186  0.82870384    -0.83500
C649        C  0.44925000  0.48373848  0.80832517     1.04100
O650        O  0.43497335  0.49831047  0.80798846    -0.76300
O651        O  0.39955045  0.52150292  0.82903900    -0.76500
C652        C  0.41796521  0.53975319  0.85095187     1.04100
Cr653      Cr  0.38766664  0.48773909  0.89464107     1.93700
Cr654      Cr  0.41479612  0.44836921  0.86971683     1.93200
Cr655      Cr  0.39130401  0.47861821  0.81940643     1.39100
O656        O  0.39812855  0.47157867  0.86116921    -1.21600
O657        O  0.55486086  0.76063512  0.76553722    -0.83800
O658        O  0.59573262  0.76038590  0.71735394    -0.80900
C659        C  0.62075918  0.78549195  0.72199884     0.99600
O660        O  0.63415618  0.79084088  0.74997654    -0.80900
O661        O  0.64614280  0.78334590  0.81695703    -0.83500
C662        C  0.63122926  0.79039604  0.83733563     1.04200
O663        O  0.60236411  0.77622197  0.83758104    -0.76300
O664        O  0.54371748  0.74105741  0.81636402    -0.76500
C665        C  0.54401279  0.75954503  0.79449027     1.04100
O666        O  0.52898313  0.69476527  0.77551952    -0.83800
O667        O  0.57568898  0.69760318  0.73568006    -0.80900
C668        C  0.60285034  0.70422167  0.72831220     0.99700
O669        O  0.62562600  0.73068465  0.73442236    -0.80900
O670        O  0.63442732  0.72290608  0.79941788    -0.83500
C671        C  0.62931749  0.71812122  0.83018134     1.04100
O672        O  0.61065919  0.72419579  0.84495965    -0.76300
O673        O  0.55237371  0.68793217  0.81815872    -0.76500
C674        C  0.52919726  0.67816696  0.79943876     1.04100
Cr675      Cr  0.56556980  0.72916126  0.75074964     1.93700
Cr676      Cr  0.63203960  0.75598792  0.77582921     1.93200
Cr677      Cr  0.57821224  0.73259868  0.82600947     1.39100
O678        O  0.59214438  0.73945886  0.78428115    -1.21600
O679        O  0.78633243  0.96974499  0.53649955    -0.83800
O680        O  0.73971269  0.96688532  0.57649733    -0.80900
C681        C  0.71255616  0.96023265  0.58394384     0.99600
O682        O  0.68979806  0.93372611  0.57794783    -0.80900
O683        O  0.68068947  0.94126116  0.01296951    -0.83500
C684        C  0.68571130  0.94600082  0.98218766     1.04200
O685        O  0.70439058  0.93998256  0.96736475    -0.76300
O686        O  0.76274707  0.97642772  0.99394563    -0.76500
C687        C  0.78599008  0.98627979  0.51258444     1.04100
O688        O  0.76062573  0.90391382  0.54662118    -0.83800
O689        O  0.71987689  0.90417960  0.59496781    -0.80900
C690        C  0.69487727  0.87902432  0.59042992     0.99700
O691        O  0.68139080  0.87358106  0.56250189    -0.80900
O692        O  0.66912638  0.88084321  0.49556692    -0.83500
C693        C  0.68401504  0.87381463  0.97513897     1.04100
O694        O  0.71287978  0.88807822  0.97475687    -0.76300
O695        O  0.77157140  0.92340537  0.99574749    -0.76500
C696        C  0.77138030  0.90496506  0.51762388     1.04100
Cr697      Cr  0.74987605  0.93535734  0.56142580     1.93700
Cr698      Cr  0.68330258  0.90831709  0.53660215     1.93200
Cr699      Cr  0.73697254  0.93173202  0.98621324     1.39100
O700        O  0.72318061  0.92492935  0.52799505    -1.21600
O701        O  0.88805618  0.42726556  0.59870931    -0.83800
O702        O  0.92892497  0.42709940  0.55045970    -0.80900
C703        C  0.95394018  0.45221481  0.55510379     0.99600
O704        O  0.96735435  0.45756049  0.58307001    -0.80900
O705        O  0.97940922  0.45004474  0.65001874    -0.83500
C706        C  0.96449785  0.45704871  0.67045319     1.04200
O707        O  0.93563099  0.44284700  0.67073118    -0.76300
O708        O  0.87697065  0.40765524  0.64952744    -0.76500
C709        C  0.87721087  0.42613138  0.62767469     1.04100
O710        O  0.86225340  0.36140987  0.60861668    -0.83800
O711        O  0.90895272  0.36431917  0.56871753    -0.80900
C712        C  0.93611476  0.37095950  0.56132150     0.99700
O713        O  0.95888138  0.39742978  0.56743509    -0.80900
O714        O  0.96775485  0.38964313  0.63240728    -0.83500
C715        C  0.96265041  0.38481735  0.66316714     1.04100
O716        O  0.94397714  0.39084795  0.67798065    -0.76300
O717        O  0.88568767  0.35456644  0.65120389    -0.76500
C718        C  0.86249977  0.34479893  0.63250088     1.04100
Cr719      Cr  0.89880523  0.39583999  0.58385281     1.93700
Cr720      Cr  0.96529990  0.42271050  0.60887060     1.93200
Cr721      Cr  0.91149874  0.39923090  0.65910058     1.39100
O722        O  0.92540587  0.40613940  0.61736112    -1.21600
O723        O  0.11969241  0.63640279  0.86977466    -0.83800
O724        O  0.07303668  0.63354460  0.90969996    -0.80900
C725        C  0.04587572  0.62690297  0.91710800     0.99600
O726        O  0.02310796  0.60042116  0.91103813    -0.80900
O727        O  0.01413405  0.60802071  0.84604880    -0.83500
C728        C  0.01918908  0.61276772  0.81527444     1.04200
O729        O  0.03787739  0.60674918  0.80047946    -0.76300
O730        O  0.09618642  0.64315853  0.82719528    -0.76500
C731        C  0.11939549  0.65297327  0.84587550     1.04100
O732        O  0.09392447  0.57055872  0.87981795    -0.83800
O733        O  0.05313036  0.57082419  0.92811123    -0.80900
C734        C  0.02811955  0.54569106  0.92353768     0.99700
O735        O  0.01467681  0.54027144  0.89558503    -0.80900
O736        O  0.00254389  0.54759219  0.82862283    -0.83500
C737        C  0.01745869  0.54056539  0.80821750     1.04100
O738        O  0.04632557  0.55483182  0.80786566    -0.76300
O739        O  0.10498681  0.59013186  0.82898811    -0.76500
C740        C  0.10472334  0.57164405  0.85083725     1.04100
Cr741      Cr  0.08318971  0.60201111  0.89462585     1.93700
Cr742      Cr  0.01666446  0.57503951  0.86968224     1.93200
Cr743      Cr  0.07041518  0.59847442  0.81939023     1.39100
O744        O  0.05654982  0.59163335  0.86114756    -1.21600
O745        O  0.85521271  0.76822286  0.93192323    -0.83800
O746        O  0.81403308  0.72724810  0.88382999    -0.80900
C747        C  0.81430127  0.70233744  0.88846247     0.99600
O748        O  0.80632642  0.68893533  0.91642894    -0.80900
O749        O  0.78698206  0.67689866  0.98343779    -0.83500
C750        C  0.80898365  0.69189767  0.00378883     1.04200
O751        O  0.82359741  0.72075490  0.50403492    -0.76300
O752        O  0.84687011  0.77934298  0.98279931    -0.76500
C753        C  0.86503317  0.77908246  0.96087020     1.04100
O754        O  0.81507284  0.79386895  0.94207713    -0.83800
O755        O  0.77114017  0.74702387  0.90232335    -0.80900
C756        C  0.75063319  0.71982608  0.89496482     0.99700
O757        O  0.75444341  0.69713407  0.90102357    -0.80900
O758        O  0.73803668  0.68830780  0.96605733    -0.83500
C759        C  0.73841647  0.69348432  0.49681268     1.04100
O760        O  0.76317626  0.71222464  0.51155127    -0.76300
O761        O  0.78498599  0.77044928  0.98478558    -0.76500
C762        C  0.79829547  0.79360990  0.96605063     1.04100
Cr763      Cr  0.81293061  0.75733937  0.91726745     1.93700
Cr764      Cr  0.77353421  0.69086907  0.94236696     1.93200
Cr765      Cr  0.80396557  0.74475166  0.49254117     1.39100
O766        O  0.79681054  0.73078442  0.95081231    -1.21600
O767        O  0.83327421  0.53707271  0.70313633    -0.83800
O768        O  0.87721377  0.58375472  0.74302187    -0.80900
C769        C  0.89777840  0.61091272  0.75043574     0.99600
O770        O  0.89408516  0.63367640  0.74438983    -0.80900
O771        O  0.91058990  0.64253681  0.67937756    -0.83500
C772        C  0.91021408  0.63746506  0.64859507     1.04200
O773        O  0.88544832  0.61879856  0.63382028    -0.76300
O774        O  0.86345570  0.56050295  0.66049026    -0.76500
C775        C  0.85007624  0.53732546  0.67919311     1.04100
O776        O  0.79326776  0.56288088  0.71326650    -0.83800
O777        O  0.83445039  0.60370828  0.76147396    -0.80900
C778        C  0.83432280  0.62869572  0.75688518     0.99700
O779        O  0.84239152  0.64214646  0.72895126    -0.80900
O780        O  0.86182321  0.65421692  0.66197370    -0.83500
C781        C  0.83982359  0.63931046  0.64159168     1.04100
O782        O  0.82511195  0.61044704  0.64130002    -0.76300
O783        O  0.80164527  0.55178866  0.66239408    -0.76500
C784        C  0.78347231  0.55206479  0.68429850     1.04100
Cr785      Cr  0.83549186  0.57360998  0.72799929     1.93700
Cr786      Cr  0.87512975  0.64009737  0.70303612     1.93200
Cr787      Cr  0.84460665  0.58631425  0.65275795     1.39100
O788        O  0.85173961  0.60021103  0.69451297    -1.21600
O789        O  0.68652897  0.15638172  0.70287006    -0.83800
O790        O  0.68953608  0.11267370  0.74281507    -0.80900
C791        C  0.69626254  0.09223017  0.75026265     0.99600
O792        O  0.72278025  0.09606121  0.74422965    -0.80900
O793        O  0.71521708  0.07947498  0.67924488    -0.83500
C794        C  0.71046676  0.07975366  0.64846256     1.04200
O795        O  0.71641512  0.10444190  0.63365372    -0.76300
O796        O  0.67986802  0.12615454  0.66028511    -0.76500
C797        C  0.66999161  0.13948135  0.67894724     1.04100
O798        O  0.75234759  0.19669462  0.71299412    -0.83800
O799        O  0.75221623  0.15569962  0.76129025    -0.80900
C800        C  0.77739483  0.15594397  0.75674005     0.99700
O801        O  0.78285702  0.14797456  0.72879446    -0.80900
O802        O  0.77557481  0.12848182  0.66186069    -0.83500
C803        C  0.78254718  0.15040861  0.64144682     1.04100
O804        O  0.76823417  0.16494419  0.64107851    -0.76300
O805        O  0.73279873  0.18811723  0.66212903    -0.76500
C806        C  0.75123885  0.20639329  0.68400896     1.04100
Cr807      Cr  0.72098263  0.15443257  0.72776931     1.93700
Cr808      Cr  0.74813770  0.11507715  0.70289022     1.93200
Cr809      Cr  0.72457417  0.14523187  0.65254407     1.39100
O810        O  0.73143824  0.13824957  0.69431504    -1.21600
O811        O  0.89591207  0.13446092  0.93197592    -0.83800
O812        O  0.89599165  0.17548049  0.88375313    -0.80900
C813        C  0.87082735  0.17525072  0.88837513     0.99600
O814        O  0.86542165  0.18322567  0.91634791    -0.80900
O815        O  0.87285103  0.20274847  0.98328335    -0.83500
C816        C  0.86589083  0.18081771  0.00368709     1.04200
O817        O  0.88016836  0.16624472  0.50398224    -0.76300
O818        O  0.91552074  0.14301649  0.98281365    -0.76500
C819        C  0.89705442  0.12475071  0.96094352     1.04100
O820        O  0.96175319  0.17472927  0.94200111    -0.83800
O821        O  0.95871974  0.21847248  0.90213236    -0.80900
C822        C  0.95199999  0.23893073  0.89473734     0.99700
O823        O  0.92548708  0.23509869  0.90079869    -0.80900
O824        O  0.93319312  0.25170322  0.96577984    -0.83500
C825        C  0.93799411  0.25142128  0.49655109     1.04100
O826        O  0.93204228  0.22672553  0.51134644    -0.76300
O827        O  0.96849604  0.20495425  0.48460521    -0.76500
C828        C  0.97832514  0.19160558  0.96592160     1.04100
Cr829      Cr  0.92727438  0.17671748  0.91718810     1.93700
Cr830      Cr  0.90020512  0.21611301  0.94218872     1.93200
Cr831      Cr  0.92380701  0.18591741  0.49243048     1.39100
O832        O  0.91688682  0.19291134  0.95069033    -1.21600
O833        O  0.18848944  0.43486314  0.76515787    -0.83800
O834        O  0.14732596  0.39391293  0.71700547    -0.80900
C835        C  0.14755384  0.36898325  0.72163633     0.99600
O836        O  0.13956014  0.35558065  0.74960080    -0.80900
O837        O  0.12017990  0.34356304  0.81658923    -0.83500
C838        C  0.14215091  0.35854966  0.83697473     1.04200
O839        O  0.15676233  0.38741334  0.83725752    -0.76300
O840        O  0.18009211  0.44599996  0.81600053    -0.76500
C841        C  0.19827984  0.44571763  0.79411745     1.04100
O842        O  0.14836257  0.46054248  0.77521312    -0.83800
O843        O  0.10444846  0.41371281  0.73542751    -0.80900
C844        C  0.08393203  0.38651853  0.72806385     0.99700
O845        O  0.08771138  0.36381298  0.73415132    -0.80900
O846        O  0.07125773  0.35498407  0.79916918    -0.83500
C847        C  0.07161129  0.36017287  0.82991985     1.04100
O848        O  0.09635691  0.37891810  0.84467491    -0.76300
O849        O  0.11820341  0.43712155  0.81786949    -0.76500
C850        C  0.13154834  0.46028333  0.79914387     1.04100
Cr851      Cr  0.14622135  0.42400619  0.75043058     1.93700
Cr852      Cr  0.10676611  0.35753681  0.77551096     1.93200
Cr853      Cr  0.13716406  0.41142469  0.82569344     1.39100
O854        O  0.13005211  0.39744955  0.78396685    -1.21600
O855        O  0.16656805  0.20371326  0.53640367    -0.83800
O856        O  0.21049057  0.25051742  0.57619664    -0.80900
C857        C  0.23102020  0.27770443  0.58356374     0.99600
O858        O  0.22726289  0.30042467  0.57748400    -0.80900
O859        O  0.24371523  0.30927178  0.01246905    -0.83500
C860        C  0.24335314  0.30410696  0.98171195     1.04200
O861        O  0.21860752  0.28536072  0.96695938    -0.76300
O862        O  0.19673748  0.22713453  0.99375320    -0.76500
C863        C  0.18338795  0.20396987  0.51247908     1.04100
O864        O  0.12647356  0.22943285  0.54647191    -0.83800
O865        O  0.16764763  0.27035319  0.59463957    -0.80900
C866        C  0.16744191  0.29529588  0.59002220     0.99700
O867        O  0.17543517  0.30870049  0.56206034    -0.80900
O868        O  0.19479863  0.32072467  0.49508149    -0.83500
C869        C  0.17283333  0.30575982  0.97469939     1.04100
O870        O  0.15822341  0.27689505  0.97438671    -0.76300
O871        O  0.13486920  0.21829759  0.99563185    -0.76500
C872        C  0.11668399  0.21858528  0.51751083     1.04100
Cr873      Cr  0.16872940  0.24025631  0.56119806     1.93700
Cr874      Cr  0.20821241  0.30672802  0.53613854     1.93200
Cr875      Cr  0.17780030  0.25285893  0.98594010     1.39100
O876        O  0.18491170  0.26681952  0.52766926    -1.21600
O877        O  0.22937253  0.80114481  0.76546545    -0.83800
O878        O  0.22941819  0.84213132  0.71722342    -0.80900
C879        C  0.20423957  0.84187444  0.72184518     0.99600
O880        O  0.19882889  0.84984661  0.74981785    -0.80900
O881        O  0.20625913  0.86940950  0.81674379    -0.83500
C882        C  0.19932405  0.84749816  0.83716652     1.04200
O883        O  0.21362026  0.83294652  0.83747919    -0.76300
O884        O  0.24897155  0.80972038  0.81631287    -0.76500
C885        C  0.23052347  0.79144581  0.79443566     1.04100
O886        O  0.29519569  0.84142216  0.77548646    -0.83800
O887        O  0.29214535  0.88515700  0.73561005    -0.80900
C888        C  0.28540488  0.90559988  0.72821121     0.99700
O889        O  0.25887650  0.90173626  0.73424859    -0.80900
O890        O  0.26658057  0.91838143  0.79921851    -0.83500
C891        C  0.27142373  0.91812325  0.82998116     1.04100
O892        O  0.26549024  0.89344035  0.84479283    -0.76300
O893        O  0.30193807  0.87166742  0.81807411    -0.76500
C894        C  0.31176400  0.85830151  0.79940575     1.04100
Cr895      Cr  0.26071332  0.84339754  0.75066744     1.93700
Cr896      Cr  0.23360507  0.88276401  0.77564513     1.93200
Cr897      Cr  0.25725231  0.85262399  0.82590874     1.39100
O898        O  0.25031399  0.85958901  0.78416306    -1.21600
O899        O  0.01999260  0.82307808  0.53621586    -0.83800
O900        O  0.02292977  0.77935800  0.57620225    -0.80900
C901        C  0.02962611  0.75889530  0.58365939     0.99600
O902        O  0.05614132  0.76270635  0.57766325    -0.80900
O903        O  0.04861737  0.74610239  0.01268361    -0.83500
C904        C  0.04388115  0.74638201  0.98189736     1.04200
O905        O  0.04985789  0.77107322  0.96707992    -0.76300
O906        O  0.01332100  0.79281711  0.99365885    -0.76500
C907        C  0.00345628  0.80617529  0.01228905     1.04100
O908        O  0.08580422  0.86334704  0.54637485    -0.83800
O909        O  0.08561540  0.82234925  0.59472115    -0.80900
C910        C  0.11078153  0.82255838  0.59020404     0.99700
O911        O  0.11625002  0.81457818  0.56226813    -0.80900
O912        O  0.10900107  0.79508209  0.49533835    -0.83500
C913        C  0.11599569  0.81701316  0.97491862     1.04100
O914        O  0.10169111  0.83155661  0.97451856    -0.76300
O915        O  0.06626080  0.85475535  0.99550124    -0.76500
C916        C  0.08469586  0.87303578  0.51738412     1.04100
Cr917      Cr  0.05441268  0.82110193  0.56115891     1.93700
Cr918      Cr  0.08153395  0.78169654  0.53634294     1.93200
Cr919      Cr  0.05802715  0.81186807  0.98594772     1.39100
O920        O  0.06486667  0.80489155  0.52773079    -1.21600
O921        O  0.52172295  0.10152288  0.59865249    -0.83800
O922        O  0.48052443  0.06050696  0.55059766    -0.80900
C923        C  0.48073067  0.03557017  0.55528696     0.99600
O924        O  0.47273129  0.02221177  0.58327683    -0.80900
O925        O  0.45337254  0.01032295  0.65030106    -0.83500
C926        C  0.47537111  0.02532031  0.67065781     1.04200
O927        O  0.49002686  0.05418501  0.67085766    -0.76300
O928        O  0.51339179  0.11274918  0.64948270    -0.76500
C929        C  0.53154400  0.11241402  0.62758869     1.04100
O930        O  0.48165480  0.12728094  0.60867003    -0.83800
O931        O  0.43770207  0.08040898  0.56896189    -0.80900
C932        C  0.41717549  0.05321198  0.56163413     0.99700
O933        O  0.42093682  0.03050368  0.56777014    -0.80900
O934        O  0.40451040  0.02182904  0.63279218    -0.83500
C935        C  0.40488707  0.02702400  0.66354237     1.04100
O936        O  0.42964902  0.04576094  0.67827785    -0.76300
O937        O  0.45153441  0.10394300  0.65137996    -0.76500
C938        C  0.46487373  0.12707556  0.63261248     1.04100
Cr939      Cr  0.47946594  0.09068348  0.58395298     1.93700
Cr940      Cr  0.43997759  0.02426583  0.60916403     1.93200
Cr941      Cr  0.47045926  0.07821924  0.65924495     1.39100
O942        O  0.46330708  0.06418526  0.61754184    -1.21600
O943        O  0.50002146  0.87047473  0.86984681    -0.83800
O944        O  0.54390345  0.91719948  0.90974175    -0.80900
C945        C  0.56442743  0.94437055  0.91717224     0.99600
O946        O  0.56067846  0.96710505  0.91113592    -0.80900
O947        O  0.57713261  0.97608016  0.84611491    -0.83500
C948        C  0.57677476  0.97096900  0.81534368     1.04200
O949        O  0.55202800  0.95225426  0.80057115    -0.76300
O950        O  0.53017794  0.89398002  0.82721117    -0.76500
C951        C  0.51684846  0.87078720  0.84589971     1.04100
O952        O  0.45988704  0.89613027  0.88003370    -0.83800
O953        O  0.50102691  0.93697712  0.92827355    -0.80900
C954        C  0.50081332  0.96192501  0.92372461     0.99700
O955        O  0.50883421  0.97539427  0.89579716    -0.80900
O956        O  0.52820945  0.98755215  0.82880329    -0.83500
C957        C  0.50623974  0.97260951  0.80839657     1.04100
O958        O  0.49162675  0.94374502  0.80805177    -0.76300
O959        O  0.46830175  0.88510347  0.82914631    -0.76500
C960        C  0.45010668  0.88532718  0.85105667     1.04100
Cr961      Cr  0.50214625  0.90695504  0.89474498     1.93700
Cr962      Cr  0.54162342  0.97348076  0.86982402     1.93200
Cr963      Cr  0.51122333  0.91970334  0.81950690     1.39100
O964        O  0.51833054  0.93358598  0.86127213    -1.21600
O965        O  0.45275628  0.30308084  0.70315206    -0.83800
O966        O  0.40605921  0.30019138  0.74302945    -0.80900
C967        C  0.37889079  0.29354279  0.75041241     0.99600
O968        O  0.35613492  0.26705072  0.74435115    -0.80900
O969        O  0.34716307  0.27462031  0.67934571    -0.83500
C970        C  0.35227312  0.27941245  0.64858219     1.04200
O971        O  0.37098231  0.27341103  0.63380826    -0.76300
O972        O  0.42926463  0.30982419  0.66055354    -0.76500
C973        C  0.45246369  0.31964881  0.67924951     1.04100
O974        O  0.42702820  0.23724434  0.71319245    -0.83800
O975        O  0.38619763  0.23748402  0.76145169    -0.80900
C976        C  0.36120914  0.21233509  0.75686823     0.99700
O977        O  0.34775963  0.20691102  0.72891982    -0.80900
O978        O  0.33563919  0.21422132  0.66195921    -0.83500
C979        C  0.35057067  0.20721621  0.64155820     1.04100
O980        O  0.37943765  0.22149827  0.64120747    -0.76300
O981        O  0.43808988  0.25680608  0.66235763    -0.76500
C982        C  0.43784702  0.23833726  0.68421959     1.04100
Cr983      Cr  0.41625106  0.26867708  0.72797999     1.93700
Cr984      Cr  0.34972657  0.24166621  0.70300563     1.93200
Cr985      Cr  0.40351097  0.26513802  0.65274131     1.39100
O986        O  0.38962178  0.25828465  0.69448891    -1.21600
O987        O  0.22136690  0.09387557  0.93203647    -0.83800
O988        O  0.26227529  0.09372510  0.88383382    -0.80900
C989        C  0.28726860  0.11885444  0.88848845     0.99600
O990        O  0.30067300  0.12421710  0.91646148    -0.80900
O991        O  0.31266383  0.11673572  0.98342938    -0.83500
C992        C  0.29771128  0.12372409  0.00382001     1.04200
O993        O  0.26884254  0.10947876  0.50408687    -0.76300
O994        O  0.21021955  0.07422800  0.98283046    -0.76500
C995        C  0.21050057  0.09273399  0.96099294     1.04100
O996        O  0.19560416  0.02802034  0.94194105    -0.83800
O997        O  0.24235578  0.03097034  0.90210593    -0.80900
C998        C  0.26953382  0.03763325  0.89475172     0.99700
O999        O  0.29228115  0.06410922  0.90088728    -0.80900
O1000       O  0.30110113  0.05635250  0.96588271    -0.83500
C1001       C  0.29595937  0.05152074  0.49663459     1.04100
O1002       O  0.27726099  0.05753547  0.51141067    -0.76300
O1003       O  0.21903206  0.02119795  0.48454747    -0.76500
C1004       C  0.19585657  0.01141392  0.96582428     1.04100
Cr1005     Cr  0.23215390  0.06246445  0.91720702     1.93700
Cr1006     Cr  0.29863008  0.08939083  0.94230046     1.93200
Cr1007     Cr  0.24477464  0.06586207  0.49246093     1.39100
O1008       O  0.25872572  0.07278408  0.95074314    -1.21600
C1009       C  0.30213663  0.13999721  0.86064444    -0.17000
C1010       C  0.31593238  0.15631086  0.83680477     0.07100
C1011       C  0.33262466  0.17493415  0.80861536     0.08900
C1012       C  0.34639776  0.19123389  0.78475853    -0.17800
C1013       C  0.31296757  0.14540647  0.53021171    -0.17000
C1014       C  0.32073571  0.15876354  0.55662202     0.07100
C1015       C  0.32748105  0.17206219  0.58885278     0.08900
C1016       C  0.33527400  0.18546113  0.61523753    -0.17800
C1017       C  0.46257917  0.15399398  0.64050532    -0.17000
C1018       C  0.45979820  0.17526856  0.65063742     0.07100
C1019       C  0.45498933  0.19877412  0.66416858     0.08900
C1020       C  0.44880826  0.21764395  0.67492722    -0.17800
C1021       C  0.31476771  0.04265772  0.51515218    -0.17000
C1022       C  0.33594573  0.04079338  0.52684155     0.07100
C1023       C  0.36393396  0.04336832  0.53773804     0.08900
C1024       C  0.38861798  0.04765737  0.54722765    -0.17800
C1025       C  0.48707674  0.02072701  0.52747366    -0.17000
C1026       C  0.48970576  0.00697876  0.50365437     0.07100
C1027       C  0.49178211  0.99035483  0.97547990     0.08900
C1028       C  0.49442849  0.97665416  0.95162383    -0.17800
C1029       C  0.49976465  0.98788336  0.78206595    -0.17000
C1030       C  0.49411235  0.99565730  0.75569420     0.07100
C1031       C  0.48748335  0.00238866  0.72348169     0.08900
C1032       C  0.48183614  0.01012352  0.69708220    -0.17800
C1033       C  0.10533430  0.90471128  0.50809540    -0.17000
C1034       C  0.12417385  0.92978183  0.99734045     0.07100
C1035       C  0.14766908  0.95811222  0.98382145     0.08900
C1036       C  0.16894432  0.98218281  0.97370421    -0.17800
C1037       C  0.34099058  0.86065557  0.80739765    -0.17000
C1038       C  0.36504304  0.86343699  0.81756607     0.07100
C1039       C  0.39335950  0.86821839  0.83109176     0.08900
C1040       C  0.41842578  0.87437529  0.84181624    -0.17800
C1041       C  0.37723674  0.00820932  0.68209316    -0.17000
C1042       C  0.35419196  0.98697926  0.69372239     0.07100
C1043       C  0.32878499  0.95892441  0.70448929     0.08900
C1044       C  0.30839884  0.93419155  0.71387459    -0.17800
C1045       C  0.28019317  0.94580464  0.84845674    -0.17000
C1046       C  0.28197712  0.96883465  0.86007442     0.07100
C1047       C  0.27933600  0.99422306  0.87088939     0.08900
C1048       C  0.27503307  0.01460967  0.88034027    -0.17800
C1049       C  0.13184001  0.82880961  0.61814834    -0.17000
C1050       C  0.14813313  0.83126551  0.64199829     0.07100
C1051       C  0.16677219  0.83311209  0.67015235     0.08900
C1052       C  0.18310257  0.83558755  0.69397231    -0.17800
C1053       C  0.17765999  0.84105806  0.86355638    -0.17000
C1054       C  0.16434299  0.83551302  0.88997464     0.07100
C1055       C  0.15110151  0.82903632  0.92222129     0.08900
C1056       C  0.13774003  0.82347653  0.94861217    -0.17800
C1057       C  0.19952683  0.11341475  0.97028852    -0.17000
C1058       C  0.19333540  0.13228657  0.98101345     0.07100
C1059       C  0.18851435  0.15580204  0.99448502     0.08900
C1060       C  0.18571817  0.17707757  0.00457790    -0.17800
C1061       C  0.33342622  0.28822574  0.63005637    -0.17000
C1062       C  0.31224066  0.29007473  0.61835770     0.07100
C1063       C  0.28425634  0.28750775  0.60744882     0.08900
C1064       C  0.25957659  0.28323466  0.59795796    -0.17800
C1065       C  0.15390248  0.35419134  0.69378183    -0.17000
C1066       C  0.15650482  0.34046261  0.66993124     0.07100
C1067       C  0.15853119  0.32383697  0.64173628     0.08900
C1068       C  0.16111911  0.31009927  0.61788548    -0.17800
C1069       C  0.16635725  0.32100790  0.94835846    -0.17000
C1070       C  0.16075406  0.32879482  0.92197628     0.07100
C1071       C  0.15420816  0.33555553  0.88975130     0.08900
C1072       C  0.14861330  0.34332466  0.86335285    -0.17800
C1073       C  0.00756542  0.19397599  0.97388828    -0.17000
C1074       C  0.03162931  0.19676527  0.98403161     0.07100
C1075       C  0.05995251  0.20154055  0.99753623     0.08900
C1076       C  0.08501099  0.20766680  0.50825412    -0.17800
C1077       C  0.04394159  0.34137415  0.84845240    -0.17000
C1078       C  0.02087178  0.32019444  0.86010654     0.07100
C1079       C  0.99541978  0.29219692  0.87093076     0.08900
C1080       C  0.97500346  0.26750013  0.88036382    -0.17800
C1081       C  0.64073309  0.13705381  0.67096475    -0.17000
C1082       C  0.61665139  0.13424452  0.66086485     0.07100
C1083       C  0.58830487  0.12946797  0.64744360     0.08900
C1084       C  0.56322413  0.12333495  0.63679447    -0.17800
C1085       C  0.60443171  0.98982192  0.79681254    -0.17000
C1086       C  0.62746679  0.01101429  0.78511403     0.07100
C1087       C  0.65287664  0.03900415  0.77420089     0.08900
C1088       C  0.67326812  0.06368453  0.76469185    -0.17800
C1089       C  0.84970356  0.16898976  0.86050176    -0.17000
C1090       C  0.83338987  0.16652971  0.83667473     0.07100
C1091       C  0.81476696  0.16468698  0.80851263     0.08900
C1092       C  0.79847376  0.16221966  0.78466254    -0.17800
C1093       C  0.80427614  0.15687801  0.61511816    -0.17000
C1094       C  0.81764035  0.16241918  0.58872888     0.07100
C1095       C  0.83090071  0.16886344  0.55648976     0.08900
C1096       C  0.84422967  0.17438561  0.53007933    -0.17800
C1097       C  0.00660250  0.73034435  0.59804739    -0.17000
C1098       C  0.98622516  0.70563864  0.60751118     0.07100
C1099       C  0.96085911  0.67759592  0.61837771     0.08900
C1100       C  0.93785600  0.65635019  0.63005749    -0.17800
C1101       C  0.89672681  0.79005115  0.97005066    -0.17000
C1102       C  0.92181474  0.79621078  0.98069944     0.07100
C1103       C  0.95015631  0.80099287  0.99413829     0.08900
C1104       C  0.97422253  0.80378463  0.00426520    -0.17800
C1105       C  0.82068149  0.68756344  0.86061278    -0.17000
C1106       C  0.82331560  0.67383929  0.83677682     0.07100
C1107       C  0.82537676  0.65721705  0.80859737     0.08900
C1108       C  0.82798741  0.64348668  0.78475280    -0.17800
C1109       C  0.83343090  0.65460322  0.61522006    -0.17000
C1110       C  0.82780644  0.66234433  0.58881507     0.07100
C1111       C  0.82116810  0.66900547  0.55657731     0.08900
C1112       C  0.81548996  0.67669672  0.53017103    -0.17800
C1113       C  0.20991030  0.75975419  0.80369750    -0.17000
C1114       C  0.19106697  0.73465493  0.81439204     0.07100
C1115       C  0.16756592  0.70628981  0.82784563     0.08900
C1116       C  0.14629317  0.68220549  0.83794316    -0.17800
C1117       C  0.03519020  0.71872212  0.96341451    -0.17000
C1118       C  0.03345474  0.69571598  0.95179051     0.07100
C1119       C  0.03612150  0.67034439  0.94096938     0.08900
C1120       C  0.04041660  0.64995395  0.93151532    -0.17800
C1121       C  0.11562463  0.55091333  0.84152148    -0.17000
C1122       C  0.12174406  0.53200639  0.83075291     0.07100
C1123       C  0.12648740  0.50846666  0.81721616     0.08900
C1124       C  0.12923856  0.48718067  0.80707482    -0.17800
C1125       C  0.92631052  0.61636945  0.76482697    -0.17000
C1126       C  0.95100129  0.62064894  0.77428442     0.07100
C1127       C  0.97903304  0.62328579  0.78512589     0.08900
C1128       C  0.00027963  0.62151434  0.79677139    -0.17800
C1129       C  0.77189537  0.23807624  0.67472752    -0.17000
C1130       C  0.79076347  0.26315650  0.66400193     0.07100
C1131       C  0.81428258  0.29150091  0.65051212     0.08900
C1132       C  0.83557003  0.31557374  0.64040142    -0.17800
C1133       C  0.94671957  0.27908455  0.51504468    -0.17000
C1134       C  0.94847984  0.30210795  0.52665243     0.07100
C1135       C  0.94584538  0.32750581  0.53744906     0.08900
C1136       C  0.94157222  0.34791297  0.54689587    -0.17800
C1137       C  0.86619883  0.44678124  0.63695534    -0.17000
C1138       C  0.85997781  0.46563464  0.64766559     0.07100
C1139       C  0.85514412  0.48913889  0.66113699     0.08900
C1140       C  0.85236220  0.51041594  0.67124837    -0.17800
C1141       C  0.05536462  0.38096210  0.71366893    -0.17000
C1142       C  0.03067445  0.37667070  0.70418794     0.07100
C1143       C  0.00267711  0.37409491  0.69330741     0.08900
C1144       C  0.98148486  0.37595616  0.68164612    -0.17800
C1145       C  0.01326756  0.52460967  0.95143944    -0.17000
C1146       C  0.99943736  0.50831286  0.97528072     0.07100
C1147       C  0.98267648  0.48968055  0.50343840     0.08900
C1148       C  0.96883075  0.47335654  0.52725716    -0.17800
C1149       C  0.00214989  0.51879985  0.78189723    -0.17000
C1150       C  0.99435283  0.50537709  0.75552013     0.07100
C1151       C  0.98758988  0.49204999  0.72329372     0.08900
C1152       C  0.97979817  0.47869567  0.69687690    -0.17800
C1153       C  0.87641519  0.09306101  0.97021408    -0.17000
C1154       C  0.85757499  0.06796812  0.98093714     0.07100
C1155       C  0.83410087  0.03960633  0.99444195     0.08900
C1156       C  0.81285889  0.01552055  0.00459214    -0.17800
C1157       C  0.70708825  0.98330073  0.59829123    -0.17000
C1158       C  0.70277936  0.00370249  0.60767295     0.07100
C1159       C  0.70008801  0.02908423  0.61840636     0.08900
C1160       C  0.70179863  0.05209704  0.62998026    -0.17800
C1161       C  0.78231354  0.88425025  0.50832861    -0.17000
C1162       C  0.78844934  0.86534142  0.99760153     0.07100
C1163       C  0.79321508  0.84179252  0.98412116     0.08900
C1164       C  0.79597733  0.82050385  0.97400164    -0.17800
C1165       C  0.66679714  0.95476855  0.96370921    -0.17000
C1166       C  0.64559448  0.95661147  0.95203903     0.07100
C1167       C  0.61762220  0.95408261  0.94112165     0.08900
C1168       C  0.59296465  0.94985982  0.93160101    -0.17800
C1169       C  0.51921814  0.84392483  0.83793794    -0.17000
C1170       C  0.52203911  0.82266542  0.82784008     0.07100
C1171       C  0.52687491  0.79914744  0.81440513     0.08900
C1172       C  0.53306300  0.78025748  0.80373176    -0.17800
C1173       C  0.64813895  0.70926401  0.84869553    -0.17000
C1174       C  0.66933575  0.70740156  0.86034344     0.07100
C1175       C  0.69734283  0.70996919  0.87117874     0.08900
C1176       C  0.72204326  0.71425475  0.88061563    -0.17800
C1177       C  0.68008429  0.85793600  0.61834397    -0.17000
C1178       C  0.66628036  0.84161632  0.64218296     0.07100
C1179       C  0.64952447  0.82295713  0.67033454     0.08900
C1180       C  0.63567314  0.80662520  0.69414830    -0.17800
C1181       C  0.64651230  0.81205500  0.86374787    -0.17000
C1182       C  0.65424791  0.82539343  0.89017453     0.07100
C1183       C  0.66093189  0.83867410  0.92242039     0.08900
C1184       C  0.66869112  0.85206148  0.94881757    -0.17800
C1185       C  0.22996307  0.45666219  0.80336900    -0.17000
C1186       C  0.25503818  0.46282739  0.81408516     0.07100
C1187       C  0.28337907  0.46764296  0.82759270     0.08900
C1188       C  0.30745476  0.47046804  0.83775550    -0.17800
C1189       C  0.33987830  0.39692070  0.93135926    -0.17000
C1190       C  0.31947131  0.37220289  0.94075067     0.07100
C1191       C  0.29404984  0.34416771  0.95153510     0.08900
C1192       C  0.27100472  0.32294617  0.96317347    -0.17800
C1193       C  0.50224937  0.64895918  0.80735781    -0.17000
C1194       C  0.48096633  0.62489309  0.81749388     0.07100
C1195       C  0.45746615  0.59654513  0.83100190     0.08900
C1196       C  0.43861421  0.57145306  0.84171942    -0.17800
C1197       C  0.36837970  0.38546535  0.79671947    -0.17000
C1198       C  0.36657607  0.36243737  0.78506505     0.07100
C1199       C  0.36916181  0.33702090  0.77422679     0.08900
C1200       C  0.37341787  0.31660055  0.76478382    -0.17800
C1201       C  0.67427621  0.52734845  0.64083953    -0.17000
C1202       C  0.69836363  0.53017408  0.65094471     0.07100
C1203       C  0.72671497  0.53498543  0.66439395     0.08900
C1204       C  0.75179489  0.54114281  0.67507166    -0.17800
C1205       C  0.64178694  0.60086545  0.54735881    -0.17000
C1206       C  0.66222335  0.62554486  0.53790675     0.07100
C1207       C  0.68769069  0.65351652  0.52704553     0.08900
C1208       C  0.71075920  0.67468125  0.51536612    -0.17800
C1209       C  0.47935962  0.34888621  0.67132855    -0.17000
C1210       C  0.50064540  0.37296419  0.66123495     0.07100
C1211       C  0.52417901  0.40130997  0.64777782     0.08900
C1212       C  0.54306472  0.42639126  0.63707925    -0.17800
C1213       C  0.61343553  0.61235078  0.68205186    -0.17000
C1214       C  0.61522406  0.63537568  0.69368224     0.07100
C1215       C  0.61258853  0.66076610  0.70448489     0.08900
C1216       C  0.60830190  0.68116510  0.71391846    -0.17800
C1217       C  0.46515832  0.49546797  0.95152802    -0.17000
C1218       C  0.48147957  0.49795706  0.97536397     0.07100
C1219       C  0.50013791  0.49983345  0.50351439     0.08900
C1220       C  0.51646864  0.50232871  0.52734315    -0.17800
C1221       C  0.51085349  0.50764072  0.69692733    -0.17000
C1222       C  0.49753299  0.50212743  0.72333961     0.07100
C1223       C  0.48430359  0.49570920  0.75558977     0.08900
C1224       C  0.47096387  0.49019204  0.78198977    -0.17800
loop_ 
_geom_bond_atom_site_label_1 
_geom_bond_atom_site_label_2 
_geom_bond_distance 
_geom_bond_site_symmetry_2 
_ccdc_geom_bond_type 
O1          Cr19   1.992       .  S
O1            C9   1.266       .  A
O2          Cr19   2.034       .  S
O2            C3   1.268       .  A
C3            O4   1.259       .  A
C3          C608   1.456       .  S
O4          Cr20   1.984       .  S
O5          Cr20   2.023       .  S
O5            C6   1.268       .  A
C6            O7   1.252       .  A
C6          C609   1.428       .  S
O7          Cr21   1.951       .  S
O8          Cr21   2.011       .  S
O8            C9   1.267       .  A
C9          C600   1.443       .  S
O10         Cr19   2.035       .  S
O10          C18   1.269       .  A
O11         Cr19   1.980       .  S
O11          C12   1.263       .  A
C12          O13   1.267       .  A
C12         C593   1.433       .  S
O13         Cr20   2.007       .  S
O14         Cr20   1.961       .  S
O14          C15   1.252       .  A
C15          O16   1.264       .  A
C15         C601   1.431       .  S
O16         Cr21   2.018       .  S
O17         Cr21   1.970       .  S
O17          C18   1.255       .  A
C18         C589   1.444       .  S
Cr19         O22   1.771       .  S
Cr20         O22   1.771       .  S
Cr21         O22   1.771       .  S
O23         Cr41   2.036       .  S
O23          C31   1.269       .  A
O24         Cr41   1.980       .  S
O24          C25   1.263       .  A
C25          O26   1.267       .  A
C25         C577   1.433       .  S
O26         Cr42   2.007       .  S
O27         Cr42   1.961       .  S
O27          C28   1.252       .  A
C28          O29   1.264       .  A
C28         C585   1.431       .  S
O29         Cr43   2.018       .  S
O30         Cr43   1.970       .  S
O30          C31   1.255       .  A
C31         C576   1.445       .  S
O32         Cr41   1.992       .  S
O32          C40   1.266       .  A
O33         Cr41   2.035       .  S
O33          C34   1.269       .  A
C34          O35   1.259       .  A
C34         C605   1.456       .  S
O35         Cr42   1.984       .  S
O36         Cr42   2.023       .  S
O36          C37   1.268       .  A
C37          O38   1.252       .  A
C37         C612   1.428       .  S
O38         Cr43   1.951       .  S
O39         Cr43   2.011       .  S
O39          C40   1.267       .  A
C40         C584   1.443       .  S
Cr41         O44   1.771       .  S
Cr42         O44   1.771       .  S
Cr43         O44   1.771       .  S
O45         Cr63   1.992       .  S
O45          C53   1.266       .  A
O46         Cr63   2.035       .  S
O46          C47   1.269       .  A
C47          O48   1.259       .  A
C47         C568   1.457       .  S
O48         Cr64   1.984       .  S
O49         Cr64   2.024       .  S
O49          C50   1.268       .  A
C50          O51   1.252       .  A
C50         C569   1.428       .  S
O51         Cr65   1.951       .  S
O52         Cr65   2.012       .  S
O52          C53   1.267       .  A
C53         C560   1.443       .  S
O54         Cr63   2.036       .  S
O54          C62   1.269       .  A
O55         Cr63   1.980       .  S
O55          C56   1.263       .  A
C56          O57   1.267       .  A
C56         C604   1.433       .  S
O57         Cr64   2.007       .  S
O58         Cr64   1.961       .  S
O58          C59   1.252       .  A
C59          O60   1.264       .  A
C59         C561   1.432       .  S
O60         Cr65   2.019       .  S
O61         Cr65   1.970       .  S
O61          C62   1.255       .  A
C62         C581   1.444       .  S
Cr63         O66   1.771       .  S
Cr64         O66   1.771       .  S
Cr65         O66   1.771       .  S
O67         Cr85   2.035       .  S
O67          C75   1.269       .  A
O68         Cr85   1.980       .  S
O68          C69   1.263       .  A
C69          O70   1.267       .  A
C69         C545   1.434       .  S
O70         Cr86   2.007       .  S
O71        Cr698   1.961       .  S
O71          C72   1.252       .  A
C72          O73   1.264       .  A
C72         C553   1.432       .  S
O73         Cr87   2.019       .  S
O74         Cr87   1.970       .  S
O74         C687   1.255       .  A
C75         O686   1.255   1_554  A
C75        C1156   1.444   1_565  S
O76         Cr85   1.992       .  S
O76          C84   1.266       .  A
O77         Cr85   2.035       .  S
O77          C78   1.268       .  A
C78          O79   1.259       .  A
C78         C565   1.457       .  S
O79         Cr86   1.984       .  S
O80         Cr86   2.024   1_556  S
O80         C693   1.268       .  A
C81          O82   1.252       .  A
C81         O692   1.268       .  A
C81         C572   1.428       .  S
O82         Cr87   1.951       .  S
O83         Cr87   2.011       .  S
O83         C696   1.267       .  A
C84         O695   1.267   1_554  A
C84         C549   1.443       .  S
Cr85         O88   1.771       .  S
Cr86        O683   1.961       .  S
Cr86         O88   1.771       .  S
Cr87        O700   1.771       .  S
O88        Cr699   1.771   1_554  S
O89        Cr107   1.992       .  S
O89          C97   1.266       .  A
O90        Cr107   2.034       .  S
O90          C91   1.268       .  A
C91          O92   1.259       .  A
C91         C536   1.456       .  S
O92        Cr108   1.984       .  S
O93        Cr108   2.024       .  S
O93          C94   1.268       .  A
C94          O95   1.252       .  A
C94         C540   1.429       .  S
O95        Cr109   1.951       .  S
O96        Cr109   2.012       .  S
O96          C97   1.267       .  A
C97         C525   1.443       .  S
O98        Cr107   2.035       .  S
O98         C106   1.269       .  A
O99        Cr107   1.980       .  S
O99         C100   1.263       .  A
C100        O101   1.267       .  A
C100        C524   1.434       .  S
O101       Cr108   2.007       .  S
O102       Cr108   1.961       .  S
O102        C103   1.252       .  A
C103        O104   1.264       .  A
C103        C532   1.431       .  S
O104       Cr109   2.018       .  S
O105       Cr109   1.970       .  S
O105        C106   1.255       .  A
C106        C520   1.444       .  S
Cr107       O110   1.771       .  S
Cr108       O110   1.771       .  S
Cr109       O110   1.771       .  S
O111       Cr129   2.035       .  S
O111        C119   1.269       .  A
O112       Cr129   1.980       .  S
O112        C113   1.263       .  A
C113        O114   1.267       .  A
C113        C508   1.433       .  S
O114       Cr130   2.007       .  S
O115       Cr130   1.961       .  S
O115        C116   1.252       .  A
C116        O117   1.264       .  A
C116        C516   1.431       .  S
O117       Cr131   2.018       .  S
O118       Cr131   1.970       .  S
O118        C119   1.255       .  A
C119        C504   1.444       .  S
O120       Cr129   1.992       .  S
O120        C128   1.266       .  A
O121       Cr129   2.034       .  S
O121        C122   1.268       .  A
C122        O123   1.259       .  A
C122        C533   1.456       .  S
O123       Cr130   1.984       .  S
O124       Cr130   2.024       .  S
O124        C125   1.268       .  A
C125        O126   1.252       .  A
C125        C537   1.429       .  S
O126       Cr131   1.951       .  S
O127       Cr131   2.011       .  S
O127        C128   1.267       .  A
C128        C509   1.443       .  S
Cr129       O132   1.771       .  S
Cr130       O132   1.771       .  S
Cr131       O132   1.771       .  S
O133       Cr151   1.992       .  S
O133        C141   1.266       .  A
O134       Cr151   2.034       .  S
O134        C135   1.268       .  A
C135        O136   1.259       .  A
C135        C493   1.456       .  S
O136       Cr152   1.985       .  S
O137       Cr152   2.024       .  S
O137        C138   1.268       .  A
C138        O751   1.252       .  A
C138       C1112   1.429       .  S
O139       Cr153   1.951   1_554  S
O139        C750   1.252       .  A
O140       Cr765   2.011       .  S
O140        C141   1.267       .  A
C141        C489   1.443       .  S
O142       Cr151   2.035       .  S
O142        C150   1.269       .  A
O143       Cr151   1.980       .  S
O143        C144   1.263       .  A
C144        O145   1.267       .  A
C144        C564   1.434       .  S
O145       Cr152   2.008       .  S
O146       Cr152   1.961       .  S
O146        C759   1.252       .  A
C147        O148   1.264   1_556  A
C147        O758   1.252       .  A
C147        C596   1.431   1_556  S
O148       Cr153   2.018   1_554  S
O149       Cr765   1.970       .  S
O149        C150   1.255       .  A
C150        C552   1.444       .  S
Cr151       O154   1.771       .  S
Cr152       O154   1.771       .  S
Cr153       O752   2.011       .  S
Cr153       O761   1.970       .  S
Cr153       O766   1.771       .  S
O154       Cr765   1.771       .  S
O155       Cr173   2.035       .  S
O155        C163   1.269       .  A
O156       Cr173   1.980       .  S
O156        C157   1.263       .  A
C157        O158   1.267       .  A
C157        C513   1.434       .  S
O158       Cr174   2.007       .  S
O159       Cr174   1.961       .  S
O159        C160   1.252       .  A
C160        O161   1.264       .  A
C160        C488   1.431       .  S
O161       Cr175   2.018       .  S
O162       Cr175   1.970       .  S
O162        C163   1.255       .  A
C163        C528   1.444       .  S
O164       Cr173   1.992       .  S
O164        C172   1.266       .  A
O165       Cr173   2.034       .  S
O165        C166   1.268       .  A
C166        O167   1.259       .  A
C166        C496   1.456       .  S
O167       Cr174   1.984       .  S
O168       Cr174   2.024       .  S
O168        C169   1.268       .  A
C169        O170   1.252       .  A
C169        C497   1.429       .  S
O170       Cr175   1.951       .  S
O171       Cr175   2.011       .  S
O171        C172   1.267       .  A
C172        C592   1.443       .  S
Cr173       O176   1.771       .  S
Cr174       O176   1.771       .  S
Cr175       O176   1.771       .  S
O177       Cr195   2.035       .  S
O177        C185   1.269       .  A
O178       Cr195   1.980       .  S
O178        C179   1.263       .  A
C179        O180   1.267       .  A
C179        C476   1.433       .  S
O180       Cr196   2.007       .  S
O181       Cr196   1.961       .  S
O181        C182   1.252       .  A
C182        O183   1.264       .  A
C182        C548   1.431       .  S
O183       Cr197   2.018       .  S
O184       Cr197   1.970       .  S
O184        C185   1.255       .  A
C185        C469   1.444       .  S
O186       Cr195   1.992       .  S
O186        C194   1.266       .  A
O187       Cr195   2.034       .  S
O187        C188   1.268       .  A
C188        O189   1.259       .  A
C188        C480   1.456       .  S
O189       Cr196   1.984       .  S
O190       Cr196   2.024       .  S
O190        C191   1.268       .  A
C191        O192   1.252       .  A
C191        C481   1.428       .  S
O192       Cr197   1.951       .  S
O193       Cr197   2.011       .  S
O193        C194   1.267       .  A
C194        C517   1.443       .  S
Cr195       O198   1.771       .  S
Cr196       O198   1.771       .  S
Cr197       O198   1.771       .  S
O199       Cr217   1.992       .  S
O199        C207   1.266       .  A
O200       Cr217   2.034       .  S
O200        C201   1.268       .  A
C201        O202   1.259       .  A
C201        C477   1.456       .  S
O202       Cr218   1.984       .  S
O203       Cr218   2.024       .  S
O203        C204   1.268       .  A
C204        O817   1.252       .  A
C204       C1096   1.428       .  S
O205       Cr219   1.951   1_554  S
O205        C816   1.252       .  A
O206       Cr831   2.011       .  S
O206        C207   1.267       .  A
C207        C541   1.443       .  S
O208       Cr217   2.035       .  S
O208        C216   1.269       .  A
O209       Cr217   1.980       .  S
O209        C210   1.263       .  A
C210        O211   1.267       .  A
C210        C468   1.433       .  S
O211       Cr218   2.007       .  S
O212       Cr218   1.960       .  S
O212        C825   1.252       .  A
C213        O214   1.264   1_556  A
C213        O824   1.252       .  A
C213        C521   1.431   1_556  S
O214       Cr219   2.018   1_554  S
O215       Cr219   1.970       .  S
O215        C828   1.255       .  A
C216        O827   1.255       .  A
C216        C461   1.444   1_655  S
Cr217       O220   1.771       .  S
Cr218       O220   1.771       .  S
Cr219       O818   2.011       .  S
Cr219       O832   1.771       .  S
O220       Cr831   1.771       .  S
O221       Cr239   1.992       .  S
O221        C229   1.266       .  A
O222       Cr239   2.034       .  S
O222        C223   1.268       .  A
C223        O224   1.259       .  A
C223        C453   1.456       .  S
O224       Cr240   1.985       .  S
O225       Cr240   2.024       .  S
O225        C226   1.268       .  A
C226        O227   1.252       .  A
C226        C460   1.428       .  S
O227       Cr241   1.951       .  S
O228       Cr241   2.011       .  S
O228        C229   1.267       .  A
C229        C573   1.444       .  S
O230       Cr239   2.035       .  S
O230        C238   1.269       .  A
O231       Cr239   1.980       .  S
O231        C232   1.264       .  A
C232        O233   1.267       .  A
C232        C529   1.434       .  S
O233       Cr240   2.007       .  S
O234       Cr240   1.961       .  S
O234        C235   1.252       .  A
C235        O236   1.264       .  A
C235        C465   1.431       .  S
O236       Cr241   2.018       .  S
O237       Cr241   1.970       .  S
O237        C238   1.255       .  A
C238        C512   1.444       .  S
Cr239       O242   1.771       .  S
Cr240       O242   1.771       .  S
Cr241       O242   1.771       .  S
O243       Cr261   2.035       .  S
O243        C251   1.269       .  A
O244       Cr261   1.980       .  S
O244        C245   1.264       .  A
C245        O246   1.267       .  A
C245        C452   1.434       .  S
O246       Cr262   2.007       .  S
O247       Cr874   1.961       .  S
O247        C248   1.252       .  A
C248        O249   1.264       .  A
C248        C580   1.431       .  S
O249       Cr263   2.018       .  S
O250       Cr263   1.970       .  S
O250        C863   1.255       .  A
C251        O862   1.255   1_554  A
C251       C1060   1.444       .  S
O252       Cr261   1.992       .  S
O252        C260   1.266       .  A
O253       Cr261   2.034       .  S
O253        C254   1.268       .  A
C254        O255   1.259       .  A
C254        C456   1.456       .  S
O255       Cr262   1.984       .  S
O256       Cr262   2.024   1_556  S
O256        C869   1.268       .  A
C257        O258   1.252       .  A
C257        O868   1.268       .  A
C257        C457   1.428       .  S
O258       Cr263   1.951       .  S
O259       Cr263   2.011       .  S
O259        C872   1.267       .  A
C260        O871   1.267   1_554  A
C260        C464   1.443       .  S
Cr261       O264   1.771       .  S
Cr262       O859   1.961       .  S
Cr262       O264   1.771       .  S
Cr263       O876   1.771       .  S
O264       Cr875   1.771   1_554  S
O265       Cr283   1.992       .  S
O265        C273   1.266       .  A
O266       Cr283   2.034       .  S
O266        C267   1.268       .  A
C267        O268   1.259       .  A
C267        C440   1.456       .  S
O268       Cr284   1.984       .  S
O269       Cr284   2.024       .  S
O269        C270   1.268       .  A
C270        O271   1.252       .  A
C270        C441   1.428       .  S
O271       Cr285   1.951       .  S
O272       Cr285   2.011       .  S
O272        C273   1.267       .  A
C273        C501   1.443       .  S
O274       Cr283   2.035       .  S
O274        C282   1.269       .  A
O275       Cr283   1.980       .  S
O275        C276   1.263       .  A
C276        O277   1.267       .  A
C276        C432   1.433       .  S
O277       Cr284   2.007       .  S
O278       Cr284   1.961       .  S
O278        C279   1.252       .  A
C279        O280   1.264       .  A
C279        C433   1.431       .  S
O280       Cr285   2.018       .  S
O281       Cr285   1.970       .  S
O281        C282   1.255       .  A
C282        C425   1.444       .  S
Cr283       O286   1.771       .  S
Cr284       O286   1.771       .  S
Cr285       O286   1.771       .  S
O287       Cr305   2.035       .  S
O287        C907   1.269       .  A
O288       Cr305   1.980       .  S
O288        C289   1.263       .  A
C289        O290   1.267       .  A
C289        C485   1.433       .  S
O290       Cr306   2.007       .  S
O291       Cr918   1.961       .  S
O291        C292   1.252       .  A
C292        O293   1.264       .  A
C292        C505   1.431       .  S
O293       Cr307   2.018       .  S
O294       Cr307   1.970       .  S
O294        C295   1.255       .  A
C295        O899   1.269       .  A
C295        C492   1.444   1_455  S
O296       Cr305   1.992       .  S
O296        C304   1.266       .  A
O297       Cr305   2.034       .  S
O297        C298   1.268       .  A
C298        O299   1.259       .  A
C298        C437   1.456       .  S
O299       Cr306   1.984       .  S
O300       Cr306   2.024   1_556  S
O300        C913   1.268       .  A
C301        O302   1.252       .  A
C301        O912   1.268       .  A
C301        C444   1.428       .  S
O302       Cr307   1.951       .  S
O303       Cr307   2.011       .  S
O303        C916   1.267       .  A
C304        O915   1.267   1_554  A
C304        C421   1.443       .  S
Cr305       O308   1.771       .  S
Cr306       O903   1.961       .  S
Cr306       O308   1.771       .  S
Cr307       O920   1.771       .  S
O308       Cr919   1.771   1_554  S
O309       Cr327   1.992       .  S
O309        C317   1.266       .  A
O310       Cr327   2.034       .  S
O310        C311   1.268       .  A
C311        O312   1.259       .  A
C311        C413   1.456       .  S
O312       Cr328   1.985       .  S
O313       Cr328   2.024       .  S
O313        C314   1.268       .  A
C314        O315   1.252       .  A
C314        C420   1.429       .  S
O315       Cr329   1.951       .  S
O316       Cr329   2.011       .  S
O316        C317   1.267       .  A
C317        C472   1.443       .  S
O318       Cr327   2.036       .  S
O318        C326   1.269       .  A
O319       Cr327   1.980       .  S
O319        C320   1.263       .  A
C320        O321   1.267       .  A
C320        C412   1.433       .  S
O321       Cr328   2.007       .  S
O322       Cr328   1.961       .  S
O322        C323   1.252       .  A
C323        O324   1.264       .  A
C323        C429   1.431       .  S
O324       Cr329   2.018       .  S
O325       Cr329   1.970       .  S
O325        C326   1.255       .  A
C326        C405   1.444       .  S
Cr327       O330   1.771       .  S
Cr328       O330   1.771       .  S
Cr329       O330   1.771       .  S
O331       Cr349   2.035       .  S
O331        C339   1.269       .  A
O332       Cr349   1.980       .  S
O332        C333   1.263       .  A
C333        O334   1.267       .  A
C333        C556   1.434       .  S
O334       Cr350   2.008       .  S
O335       Cr350   1.961       .  S
O335        C336   1.252       .  A
C336        O337   1.264       .  A
C336        C473   1.431       .  S
O337       Cr351   2.018       .  S
O338       Cr351   1.970       .  S
O338        C339   1.255       .  A
C339        C557   1.444       .  S
O340       Cr349   1.992       .  S
O340        C348   1.266       .  A
O341       Cr349   2.034       .  S
O341        C342   1.268       .  A
C342        O343   1.259       .  A
C342        C416   1.456       .  S
O343       Cr350   1.985       .  S
O344       Cr350   2.024       .  S
O344        C345   1.268       .  A
C345        O346   1.252       .  A
C345        C417   1.429       .  S
O346       Cr351   1.951       .  S
O347       Cr351   2.011       .  S
O347        C348   1.267       .  A
C348        C428   1.443       .  S
Cr349       O352   1.771       .  S
Cr350       O352   1.771       .  S
Cr351       O352   1.771       .  S
O353       Cr371   2.035       .  S
O353        C361   1.269       .  A
O354       Cr371   1.980       .  S
O354        C355   1.264       .  A
C355        O356   1.267       .  A
C355        C588   1.434       .  S
O356       Cr372   2.007       .  S
O357       Cr372   1.961       .  S
O357        C358   1.252       .  A
C358        O359   1.264       .  A
C358        C449   1.431       .  S
O359       Cr373   2.018       .  S
O360       Cr373   1.970       .  S
O360        C361   1.255       .  A
C361        C597   1.444       .  S
O362       Cr371   1.993       .  S
O362        C370   1.266       .  A
O363       Cr371   2.034       .  S
O363        C364   1.268       .  A
C364        O365   1.259       .  A
C364        C400   1.456       .  S
O365       Cr372   1.984       .  S
O366       Cr372   2.024       .  S
O366        C367   1.268       .  A
C367        O368   1.252       .  A
C367        C404   1.428       .  S
O368       Cr373   1.951       .  S
O369       Cr373   2.011       .  S
O369        C370   1.267       .  A
C370        C408   1.444       .  S
Cr371       O374   1.771       .  S
Cr372       O374   1.771       .  S
Cr373       O374   1.771       .  S
O375       Cr393   1.992       .  S
O375        C383   1.266       .  A
O376       Cr393   2.034       .  S
O376        C377   1.268       .  A
C377        O378   1.259       .  A
C377        C397   1.456       .  S
O378       Cr394   1.984       .  S
O379       Cr394   2.024       .  S
O379        C380   1.268       .  A
C380        O993   1.252       .  A
C380       C1013   1.428       .  S
O381       Cr395   1.951   1_554  S
O381        C992   1.252       .  A
O382      Cr1007   2.011       .  S
O382        C383   1.267       .  A
C383        C445   1.443       .  S
O384       Cr393   2.035       .  S
O384        C392   1.269       .  A
O385       Cr393   1.980       .  S
O385        C386   1.263       .  A
C386        O387   1.267       .  A
C386        C436   1.433       .  S
O387       Cr394   2.007       .  S
O388       Cr394   1.961       .  S
O388       C1001   1.252       .  A
C389        O390   1.264   1_556  A
C389       O1000   1.252       .  A
C389        C409   1.431   1_556  S
O390       Cr395   2.018   1_554  S
O391       Cr395   1.970       .  S
O391       C1004   1.255       .  A
C392       O1003   1.255       .  A
C392        C424   1.444   1_545  S
Cr393       O396   1.771       .  S
Cr394       O396   1.771       .  S
Cr395       O994   2.011       .  S
Cr395      O1008   1.771       .  S
O396      Cr1007   1.771       .  S
C397        C398   1.218       .  T
C398        C399   1.433       .  S
C399        C400   1.218       .  T
C401        C992   1.428       .  S
C401        C402   1.203       .  T
C402        C403   1.409       .  S
C403        C404   1.203       .  T
C405        C406   1.211       .  T
C406        C407   1.421       .  S
C407        C408   1.211       .  T
C409        C410   1.204       .  T
C410        C411   1.411       .  S
C411        C412   1.205       .  T
C413        C414   1.219       .  T
C414       C1027   1.433   1_544  S
C415        C416   1.219       .  T
C415       C1026   1.433   1_565  S
C417        C418   1.203       .  T
C418        C419   1.409   1_565  S
C419        C420   1.203       .  T
C421       C1034   1.211   1_554  T
C422       C1033   1.211       .  T
C422        C423   1.421       .  S
C423        C424   1.211       .  T
C425        C426   1.211       .  T
C426        C427   1.421       .  S
C427        C428   1.211       .  T
C429        C430   1.204   1_545  T
C430        C431   1.410       .  S
C431        C432   1.205       .  T
C433        C434   1.204       .  T
C434        C435   1.411       .  S
C435        C436   1.205   1_565  T
C437        C438   1.218       .  T
C438        C439   1.433       .  S
C439        C440   1.218       .  T
C441        C442   1.203       .  T
C442        C443   1.409       .  S
C443        C444   1.203       .  T
C445        C446   1.211       .  T
C446        C447   1.421       .  S
C447        C448   1.211       .  T
C448        C863   1.444       .  S
C449        C450   1.204       .  T
C450        C451   1.411       .  S
C451        C452   1.205       .  T
C453        C454   1.218       .  T
C454        C455   1.433       .  S
C455        C456   1.218       .  T
C457        C458   1.203       .  T
C458        C459   1.409       .  S
C459        C460   1.203       .  T
C461        C462   1.211       .  T
C462        C463   1.421       .  S
C463       C1076   1.211       .  T
C464       C1075   1.211   1_554  T
C465        C466   1.204       .  T
C466        C467   1.411   1_455  S
C467        C468   1.205       .  T
C469        C470   1.211       .  T
C470        C471   1.421       .  S
C471        C472   1.211       .  T
C473        C474   1.204   1_565  T
C474        C475   1.411       .  S
C475        C476   1.205       .  T
C477        C478   1.218       .  T
C478        C479   1.433       .  S
C479        C480   1.218       .  T
C481        C482   1.203       .  T
C482        C483   1.409       .  S
C483        C484   1.203       .  T
C484        C816   1.428       .  S
C485        C486   1.205   1_455  T
C486        C487   1.411       .  S
C487        C488   1.204       .  T
C489        C490   1.211       .  T
C490        C491   1.421       .  S
C491        C492   1.211       .  T
C493        C494   1.218       .  T
C494        C495   1.433       .  S
C495        C496   1.218       .  T
C497        C498   1.203       .  T
C498        C499   1.409       .  S
C499        C500   1.203       .  T
C500        C750   1.429       .  S
C501        C502   1.211       .  T
C502        C503   1.421       .  S
C503        C504   1.211       .  T
C505        C506   1.204       .  T
C506        C507   1.411       .  S
C507        C508   1.205       .  T
C509        C510   1.211       .  T
C510        C511   1.421       .  S
C511        C512   1.211       .  T
C513        C514   1.205       .  T
C514        C515   1.411       .  S
C515        C516   1.204   1_655  T
C517        C518   1.211       .  T
C518        C519   1.421       .  S
C519        C520   1.211       .  T
C521        C522   1.204       .  T
C522        C523   1.411       .  S
C523        C524   1.205       .  T
C525        C526   1.211       .  T
C526        C527   1.421       .  S
C527        C528   1.211       .  T
C529        C530   1.205       .  T
C530        C531   1.411       .  S
C531        C532   1.204   1_455  T
C533        C534   1.219   1_455  T
C534       C1147   1.433       .  S
C535        C536   1.219       .  T
C535       C1146   1.433   1_554  S
C537        C538   1.203   1_455  T
C538        C539   1.409       .  S
C539        C540   1.203       .  T
C541        C542   1.211       .  T
C542        C543   1.421       .  S
C543        C544   1.211       .  T
C544        C687   1.444   1_545  S
C545        C546   1.205   1_565  T
C546        C547   1.411       .  S
C547        C548   1.204       .  T
C549       C1162   1.211   1_554  T
C550       C1161   1.211       .  T
C550        C551   1.421       .  S
C551        C552   1.211       .  T
C553        C554   1.205       .  T
C554        C555   1.411       .  S
C555        C556   1.205       .  T
C557        C558   1.211       .  T
C558        C559   1.421       .  S
C559        C560   1.211       .  T
C561        C562   1.204       .  T
C562        C563   1.411       .  S
C563        C564   1.205       .  T
C565        C566   1.219       .  T
C566        C567   1.433       .  S
C567        C568   1.219       .  T
C569        C570   1.203       .  T
C570        C571   1.409       .  S
C571        C572   1.203       .  T
C573        C574   1.211       .  T
C574        C575   1.421       .  S
C575        C576   1.211       .  T
C577        C578   1.205       .  T
C578        C579   1.410       .  S
C579        C580   1.204       .  T
C581        C582   1.211       .  T
C582        C583   1.421       .  S
C583        C584   1.211       .  T
C585        C586   1.204       .  T
C586        C587   1.411       .  S
C587        C588   1.205       .  T
C589        C590   1.211       .  T
C590        C591   1.421       .  S
C591        C592   1.211       .  T
C593        C594   1.205       .  T
C594        C595   1.411       .  S
C595        C596   1.204       .  T
C597        C598   1.211       .  T
C598        C599   1.421       .  S
C599        C600   1.211       .  T
C601        C602   1.204       .  T
C602        C603   1.410       .  S
C603        C604   1.205       .  T
C605        C606   1.218       .  T
C606       C1219   1.433       .  S
C607        C608   1.218       .  T
C607       C1218   1.433   1_554  S
C609        C610   1.203       .  T
C610        C611   1.408       .  S
C611        C612   1.203       .  T
O613       Cr631   1.992       .  S
O613        C621   1.266       .  A
O614       Cr631   2.034       .  S
O614        C615   1.268       .  A
C615        O616   1.259       .  A
C615       C1220   1.456       .  S
O616       Cr632   1.984       .  S
O617       Cr632   2.023       .  S
O617        C618   1.268       .  A
C618        O619   1.252       .  A
C618       C1221   1.428       .  S
O619       Cr633   1.951       .  S
O620       Cr633   2.011       .  S
O620        C621   1.267       .  A
C621       C1212   1.443       .  S
O622       Cr631   2.035       .  S
O622        C630   1.269       .  A
O623       Cr631   1.980       .  S
O623        C624   1.263       .  A
C624        O625   1.267       .  A
C624       C1205   1.433       .  S
O625       Cr632   2.007       .  S
O626       Cr632   1.961       .  S
O626        C627   1.252       .  A
C627        O628   1.264       .  A
C627       C1213   1.431       .  S
O628       Cr633   2.018       .  S
O629       Cr633   1.970       .  S
O629        C630   1.255       .  A
C630       C1201   1.444       .  S
Cr631       O634   1.771       .  S
Cr632       O634   1.771       .  S
Cr633       O634   1.771       .  S
O635       Cr653   2.036       .  S
O635        C643   1.269       .  A
O636       Cr653   1.980       .  S
O636        C637   1.263       .  A
C637        O638   1.267       .  A
C637       C1189   1.433       .  S
O638       Cr654   2.007       .  S
O639       Cr654   1.961       .  S
O639        C640   1.252       .  A
C640        O641   1.264       .  A
C640       C1197   1.431       .  S
O641       Cr655   2.018       .  S
O642       Cr655   1.970       .  S
O642        C643   1.255       .  A
C643       C1188   1.445       .  S
O644       Cr653   1.992       .  S
O644        C652   1.266       .  A
O645       Cr653   2.035       .  S
O645        C646   1.269       .  A
C646        O647   1.259       .  A
C646       C1217   1.456       .  S
O647       Cr654   1.984       .  S
O648       Cr654   2.023       .  S
O648        C649   1.268       .  A
C649        O650   1.252       .  A
C649       C1224   1.428       .  S
O650       Cr655   1.951       .  S
O651       Cr655   2.011       .  S
O651        C652   1.267       .  A
C652       C1196   1.443       .  S
Cr653       O656   1.771       .  S
Cr654       O656   1.771       .  S
Cr655       O656   1.771       .  S
O657       Cr675   1.992       .  S
O657        C665   1.266       .  A
O658       Cr675   2.035       .  S
O658        C659   1.269       .  A
C659        O660   1.259       .  A
C659       C1180   1.457       .  S
O660       Cr676   1.984       .  S
O661       Cr676   2.024       .  S
O661        C662   1.268       .  A
C662        O663   1.252       .  A
C662       C1181   1.428       .  S
O663       Cr677   1.951       .  S
O664       Cr677   2.012       .  S
O664        C665   1.267       .  A
C665       C1172   1.443       .  S
O666       Cr675   2.036       .  S
O666        C674   1.269       .  A
O667       Cr675   1.980       .  S
O667        C668   1.263       .  A
C668        O669   1.267       .  A
C668       C1216   1.433       .  S
O669       Cr676   2.007       .  S
O670       Cr676   1.961       .  S
O670        C671   1.252       .  A
C671        O672   1.264       .  A
C671       C1173   1.432       .  S
O672       Cr677   2.019       .  S
O673       Cr677   1.970       .  S
O673        C674   1.255       .  A
C674       C1193   1.444       .  S
Cr675       O678   1.771       .  S
Cr676       O678   1.771       .  S
Cr677       O678   1.771       .  S
O679       Cr697   2.035       .  S
O679        C687   1.269       .  A
O680       Cr697   1.980       .  S
O680        C681   1.263       .  A
C681        O682   1.267       .  A
C681       C1157   1.434       .  S
O682       Cr698   2.007       .  S
O683        C684   1.252   1_554  A
C684        O685   1.264       .  A
C684       C1165   1.432       .  S
O685       Cr699   2.019       .  S
O686       Cr699   1.970       .  S
O688       Cr697   1.992       .  S
O688        C696   1.266       .  A
O689       Cr697   2.035       .  S
O689        C690   1.268       .  A
C690        O691   1.259       .  A
C690       C1177   1.457       .  S
O691       Cr698   1.984       .  S
O692       Cr698   2.024       .  S
C693        O694   1.252       .  A
C693       C1184   1.428       .  S
O694       Cr699   1.951       .  S
O695       Cr699   2.012       .  S
C696       C1161   1.443       .  S
Cr697       O700   1.771       .  S
Cr698       O700   1.771       .  S
O701       Cr719   1.992       .  S
O701        C709   1.266       .  A
O702       Cr719   2.034       .  S
O702        C703   1.268       .  A
C703        O704   1.259       .  A
C703       C1148   1.456       .  S
O704       Cr720   1.984       .  S
O705       Cr720   2.024       .  S
O705        C706   1.268       .  A
C706        O707   1.252       .  A
C706       C1152   1.429       .  S
O707       Cr721   1.951       .  S
O708       Cr721   2.012       .  S
O708        C709   1.267       .  A
C709       C1137   1.443       .  S
O710       Cr719   2.035       .  S
O710        C718   1.269       .  A
O711       Cr719   1.980       .  S
O711        C712   1.263       .  A
C712        O713   1.267       .  A
C712       C1136   1.433       .  S
O713       Cr720   2.007       .  S
O714       Cr720   1.961       .  S
O714        C715   1.252       .  A
C715        O716   1.264       .  A
C715       C1144   1.431       .  S
O716       Cr721   2.018       .  S
O717       Cr721   1.970       .  S
O717        C718   1.255       .  A
C718       C1132   1.444       .  S
Cr719       O722   1.771       .  S
Cr720       O722   1.771       .  S
Cr721       O722   1.771       .  S
O723       Cr741   2.035       .  S
O723        C731   1.269       .  A
O724       Cr741   1.980       .  S
O724        C725   1.263       .  A
C725        O726   1.267       .  A
C725       C1120   1.433       .  S
O726       Cr742   2.007       .  S
O727       Cr742   1.961       .  S
O727        C728   1.252       .  A
C728        O729   1.264       .  A
C728       C1128   1.431       .  S
O729       Cr743   2.018       .  S
O730       Cr743   1.970       .  S
O730        C731   1.255       .  A
C731       C1116   1.444       .  S
O732       Cr741   1.992       .  S
O732        C740   1.266       .  A
O733       Cr741   2.034       .  S
O733        C734   1.268       .  A
C734        O735   1.259       .  A
C734       C1145   1.456       .  S
O735       Cr742   1.984       .  S
O736       Cr742   2.024       .  S
O736        C737   1.268       .  A
C737        O738   1.252       .  A
C737       C1149   1.429       .  S
O738       Cr743   1.951       .  S
O739       Cr743   2.011       .  S
O739        C740   1.267       .  A
C740       C1121   1.443       .  S
Cr741       O744   1.771       .  S
Cr742       O744   1.771       .  S
Cr743       O744   1.771       .  S
O745       Cr763   1.992       .  S
O745        C753   1.266       .  A
O746       Cr763   2.034       .  S
O746        C747   1.268       .  A
C747        O748   1.259       .  A
C747       C1105   1.456       .  S
O748       Cr764   1.985       .  S
O749       Cr764   2.024       .  S
O749        C750   1.268   1_556  A
O751       Cr765   1.951       .  S
O752        C753   1.267       .  A
C753       C1101   1.443       .  S
O754       Cr763   2.035       .  S
O754        C762   1.269       .  A
O755       Cr763   1.980       .  S
O755        C756   1.263       .  A
C756        O757   1.267       .  A
C756       C1176   1.434       .  S
O757       Cr764   2.008       .  S
O758       Cr764   1.961       .  S
C759        O760   1.264       .  A
C759       C1208   1.431       .  S
O760       Cr765   2.018       .  S
O761        C762   1.255       .  A
C762       C1164   1.444       .  S
Cr763       O766   1.771       .  S
Cr764       O766   1.771       .  S
O767       Cr785   2.035       .  S
O767        C775   1.269       .  A
O768       Cr785   1.980       .  S
O768        C769   1.263       .  A
C769        O770   1.267       .  A
C769       C1125   1.434       .  S
O770       Cr786   2.007       .  S
O771       Cr786   1.961       .  S
O771        C772   1.252       .  A
C772        O773   1.264       .  A
C772       C1100   1.431       .  S
O773       Cr787   2.018       .  S
O774       Cr787   1.970       .  S
O774        C775   1.255       .  A
C775       C1140   1.444       .  S
O776       Cr785   1.992       .  S
O776        C784   1.266       .  A
O777       Cr785   2.034       .  S
O777        C778   1.268       .  A
C778        O779   1.259       .  A
C778       C1108   1.456       .  S
O779       Cr786   1.984       .  S
O780       Cr786   2.024       .  S
O780        C781   1.268       .  A
C781        O782   1.252       .  A
C781       C1109   1.429       .  S
O782       Cr787   1.951       .  S
O783       Cr787   2.011       .  S
O783        C784   1.267       .  A
C784       C1204   1.443       .  S
Cr785       O788   1.771       .  S
Cr786       O788   1.771       .  S
Cr787       O788   1.771       .  S
O789       Cr807   2.035       .  S
O789        C797   1.269       .  A
O790       Cr807   1.980       .  S
O790        C791   1.263       .  A
C791        O792   1.267       .  A
C791       C1088   1.433       .  S
O792       Cr808   2.007       .  S
O793       Cr808   1.961       .  S
O793        C794   1.252       .  A
C794        O795   1.264       .  A
C794       C1160   1.431       .  S
O795       Cr809   2.018       .  S
O796       Cr809   1.970       .  S
O796        C797   1.255       .  A
C797       C1081   1.444       .  S
O798       Cr807   1.992       .  S
O798        C806   1.266       .  A
O799       Cr807   2.034       .  S
O799        C800   1.268       .  A
C800        O801   1.259       .  A
C800       C1092   1.456       .  S
O801       Cr808   1.984       .  S
O802       Cr808   2.024       .  S
O802        C803   1.268       .  A
C803        O804   1.252       .  A
C803       C1093   1.428       .  S
O804       Cr809   1.951       .  S
O805       Cr809   2.011       .  S
O805        C806   1.267       .  A
C806       C1129   1.443       .  S
Cr807       O810   1.771       .  S
Cr808       O810   1.771       .  S
Cr809       O810   1.771       .  S
O811       Cr829   1.992       .  S
O811        C819   1.266       .  A
O812       Cr829   2.034       .  S
O812        C813   1.268       .  A
C813        O814   1.259       .  A
C813       C1089   1.456       .  S
O814       Cr830   1.984       .  S
O815       Cr830   2.024       .  S
O815        C816   1.268   1_556  A
O817       Cr831   1.951       .  S
O818        C819   1.267       .  A
C819       C1153   1.443       .  S
O820       Cr829   2.035       .  S
O820        C828   1.269       .  A
O821       Cr829   1.980       .  S
O821        C822   1.263       .  A
C822        O823   1.267       .  A
C822       C1080   1.433       .  S
O823       Cr830   2.007       .  S
O824       Cr830   1.960       .  S
C825        O826   1.264       .  A
C825       C1133   1.431       .  S
O826       Cr831   2.018       .  S
O827       Cr831   1.970       .  S
C828       C1073   1.444   1_655  S
Cr829       O832   1.771       .  S
Cr830       O832   1.771       .  S
O833       Cr851   1.993       .  S
O833        C841   1.266       .  A
O834       Cr851   2.034       .  S
O834        C835   1.268       .  A
C835        O836   1.259       .  A
C835       C1065   1.456       .  S
O836       Cr852   1.985       .  S
O837       Cr852   2.024       .  S
O837        C838   1.268       .  A
C838        O839   1.252       .  A
C838       C1072   1.428       .  S
O839       Cr853   1.951       .  S
O840       Cr853   2.011       .  S
O840        C841   1.267       .  A
C841       C1185   1.444       .  S
O842       Cr851   2.035       .  S
O842        C850   1.269       .  A
O843       Cr851   1.980       .  S
O843        C844   1.264       .  A
C844        O845   1.267       .  A
C844       C1141   1.434       .  S
O845       Cr852   2.007       .  S
O846       Cr852   1.961       .  S
O846        C847   1.252       .  A
C847        O848   1.264       .  A
C847       C1077   1.431       .  S
O848       Cr853   2.018       .  S
O849       Cr853   1.970       .  S
O849        C850   1.255       .  A
C850       C1124   1.444       .  S
Cr851       O854   1.771       .  S
Cr852       O854   1.771       .  S
Cr853       O854   1.771       .  S
O855       Cr873   2.035       .  S
O855        C863   1.269       .  A
O856       Cr873   1.980       .  S
O856        C857   1.264       .  A
C857        O858   1.267       .  A
C857       C1064   1.434       .  S
O858       Cr874   2.007       .  S
O859        C860   1.252   1_554  A
C860        O861   1.264       .  A
C860       C1192   1.431       .  S
O861       Cr875   2.018       .  S
O862       Cr875   1.970       .  S
O864       Cr873   1.992       .  S
O864        C872   1.266       .  A
O865       Cr873   2.034       .  S
O865        C866   1.268       .  A
C866        O867   1.259       .  A
C866       C1068   1.456       .  S
O867       Cr874   1.984       .  S
O868       Cr874   2.024       .  S
C869        O870   1.252       .  A
C869       C1069   1.428       .  S
O870       Cr875   1.951       .  S
O871       Cr875   2.011       .  S
C872       C1076   1.443       .  S
Cr873       O876   1.771       .  S
Cr874       O876   1.771       .  S
O877       Cr895   1.992       .  S
O877        C885   1.266       .  A
O878       Cr895   2.034       .  S
O878        C879   1.268       .  A
C879        O880   1.259       .  A
C879       C1052   1.456       .  S
O880       Cr896   1.984       .  S
O881       Cr896   2.024       .  S
O881        C882   1.268       .  A
C882        O883   1.252       .  A
C882       C1053   1.428       .  S
O883       Cr897   1.951       .  S
O884       Cr897   2.011       .  S
O884        C885   1.267       .  A
C885       C1113   1.443       .  S
O886       Cr895   2.035       .  S
O886        C894   1.269       .  A
O887       Cr895   1.980       .  S
O887        C888   1.263       .  A
C888        O889   1.267       .  A
C888       C1044   1.433       .  S
O889       Cr896   2.007       .  S
O890       Cr896   1.961       .  S
O890        C891   1.252       .  A
C891        O892   1.264       .  A
C891       C1045   1.431       .  S
O892       Cr897   2.018       .  S
O893       Cr897   1.970       .  S
O893        C894   1.255       .  A
C894       C1037   1.444       .  S
Cr895       O898   1.771       .  S
Cr896       O898   1.771       .  S
Cr897       O898   1.771       .  S
O899       Cr917   2.035       .  S
O900       Cr917   1.980       .  S
O900        C901   1.263       .  A
C901        O902   1.267       .  A
C901       C1097   1.433       .  S
O902       Cr918   2.007       .  S
O903        C904   1.252   1_554  A
C904        O905   1.264       .  A
C904       C1117   1.431       .  S
O905       Cr919   2.018       .  S
O906       Cr919   1.970       .  S
O906        C907   1.255   1_556  A
C907       C1104   1.444   1_455  S
O908       Cr917   1.992       .  S
O908        C916   1.266       .  A
O909       Cr917   2.034       .  S
O909        C910   1.268       .  A
C910        O911   1.259       .  A
C910       C1049   1.456       .  S
O911       Cr918   1.984       .  S
O912       Cr918   2.024       .  S
C913        O914   1.252       .  A
C913       C1056   1.428       .  S
O914       Cr919   1.951       .  S
O915       Cr919   2.011       .  S
C916       C1033   1.443       .  S
Cr917       O920   1.771       .  S
Cr918       O920   1.771       .  S
O921       Cr939   1.992       .  S
O921        C929   1.266       .  A
O922       Cr939   2.034       .  S
O922        C923   1.268       .  A
C923        O924   1.259       .  A
C923       C1025   1.456       .  S
O924       Cr940   1.985       .  S
O925       Cr940   2.024       .  S
O925        C926   1.268       .  A
C926        O927   1.252       .  A
C926       C1032   1.429       .  S
O927       Cr941   1.951       .  S
O928       Cr941   2.011       .  S
O928        C929   1.267       .  A
C929       C1084   1.443       .  S
O930       Cr939   2.036       .  S
O930        C938   1.269       .  A
O931       Cr939   1.980       .  S
O931        C932   1.263       .  A
C932        O933   1.267       .  A
C932       C1024   1.433       .  S
O933       Cr940   2.007       .  S
O934       Cr940   1.961       .  S
O934        C935   1.252       .  A
C935        O936   1.264       .  A
C935       C1041   1.431       .  S
O936       Cr941   2.018       .  S
O937       Cr941   1.970       .  S
O937        C938   1.255       .  A
C938       C1017   1.444       .  S
Cr939       O942   1.771       .  S
Cr940       O942   1.771       .  S
Cr941       O942   1.771       .  S
O943       Cr961   2.035       .  S
O943        C951   1.269       .  A
O944       Cr961   1.980       .  S
O944        C945   1.263       .  A
C945        O946   1.267       .  A
C945       C1168   1.434       .  S
O946       Cr962   2.008       .  S
O947       Cr962   1.961       .  S
O947        C948   1.252       .  A
C948        O949   1.264       .  A
C948       C1085   1.431       .  S
O949       Cr963   2.018       .  S
O950       Cr963   1.970       .  S
O950        C951   1.255       .  A
C951       C1169   1.444       .  S
O952       Cr961   1.992       .  S
O952        C960   1.266       .  A
O953       Cr961   2.034       .  S
O953        C954   1.268       .  A
C954        O955   1.259       .  A
C954       C1028   1.456       .  S
O955       Cr962   1.985       .  S
O956       Cr962   2.024       .  S
O956        C957   1.268       .  A
C957        O958   1.252       .  A
C957       C1029   1.429       .  S
O958       Cr963   1.951       .  S
O959       Cr963   2.011       .  S
O959        C960   1.267       .  A
C960       C1040   1.443       .  S
Cr961       O964   1.771       .  S
Cr962       O964   1.771       .  S
Cr963       O964   1.771       .  S
O965       Cr983   2.035       .  S
O965        C973   1.269       .  A
O966       Cr983   1.980       .  S
O966        C967   1.264       .  A
C967        O968   1.267       .  A
C967       C1200   1.434       .  S
O968       Cr984   2.007       .  S
O969       Cr984   1.961       .  S
O969        C970   1.252       .  A
C970        O971   1.264       .  A
C970       C1061   1.431       .  S
O971       Cr985   2.018       .  S
O972       Cr985   1.970       .  S
O972        C973   1.255       .  A
C973       C1209   1.444       .  S
O974       Cr983   1.993       .  S
O974        C982   1.266       .  A
O975       Cr983   2.034       .  S
O975        C976   1.268       .  A
C976        O977   1.259       .  A
C976       C1012   1.456       .  S
O977       Cr984   1.984       .  S
O978       Cr984   2.024       .  S
O978        C979   1.268       .  A
C979        O980   1.252       .  A
C979       C1016   1.428       .  S
O980       Cr985   1.951       .  S
O981       Cr985   2.011       .  S
O981        C982   1.267       .  A
C982       C1020   1.444       .  S
Cr983       O986   1.771       .  S
Cr984       O986   1.771       .  S
Cr985       O986   1.771       .  S
O987      Cr1005   1.992       .  S
O987        C995   1.266       .  A
O988      Cr1005   2.034       .  S
O988        C989   1.268       .  A
C989        O990   1.259       .  A
C989       C1009   1.456       .  S
O990      Cr1006   1.984       .  S
O991      Cr1006   2.024       .  S
O991        C992   1.268   1_556  A
O993      Cr1007   1.951       .  S
O994        C995   1.267       .  A
C995       C1057   1.443       .  S
O996      Cr1005   2.035       .  S
O996       C1004   1.269       .  A
O997      Cr1005   1.980       .  S
O997        C998   1.263       .  A
C998        O999   1.267       .  A
C998       C1048   1.433       .  S
O999      Cr1006   2.007       .  S
O1000     Cr1006   1.961       .  S
C1001      O1002   1.264       .  A
C1001      C1021   1.431       .  S
O1002     Cr1007   2.018       .  S
O1003     Cr1007   1.970       .  S
C1004      C1036   1.444   1_545  S
Cr1005     O1008   1.771       .  S
Cr1006     O1008   1.771       .  S
C1009      C1010   1.218       .  T
C1010      C1011   1.433       .  S
C1011      C1012   1.218       .  T
C1013      C1014   1.203       .  T
C1014      C1015   1.409       .  S
C1015      C1016   1.203       .  T
C1017      C1018   1.211       .  T
C1018      C1019   1.421       .  S
C1019      C1020   1.211       .  T
C1021      C1022   1.204       .  T
C1022      C1023   1.411       .  S
C1023      C1024   1.205       .  T
C1025      C1026   1.218       .  T
C1027      C1028   1.219       .  T
C1029      C1030   1.203       .  T
C1030      C1031   1.409   1_565  S
C1031      C1032   1.203       .  T
C1034      C1035   1.421       .  S
C1035      C1036   1.211       .  T
C1037      C1038   1.211       .  T
C1038      C1039   1.421       .  S
C1039      C1040   1.211       .  T
C1041      C1042   1.204   1_545  T
C1042      C1043   1.410       .  S
C1043      C1044   1.205       .  T
C1045      C1046   1.204       .  T
C1046      C1047   1.411       .  S
C1047      C1048   1.205   1_565  T
C1049      C1050   1.218       .  T
C1050      C1051   1.433       .  S
C1051      C1052   1.218       .  T
C1053      C1054   1.203       .  T
C1054      C1055   1.409       .  S
C1055      C1056   1.203       .  T
C1057      C1058   1.211       .  T
C1058      C1059   1.421       .  S
C1059      C1060   1.211   1_556  T
C1061      C1062   1.204       .  T
C1062      C1063   1.411       .  S
C1063      C1064   1.205       .  T
C1065      C1066   1.218       .  T
C1066      C1067   1.433       .  S
C1067      C1068   1.218       .  T
C1069      C1070   1.203       .  T
C1070      C1071   1.409       .  S
C1071      C1072   1.203       .  T
C1073      C1074   1.211       .  T
C1074      C1075   1.421       .  S
C1077      C1078   1.204       .  T
C1078      C1079   1.411   1_455  S
C1079      C1080   1.205       .  T
C1081      C1082   1.211       .  T
C1082      C1083   1.421       .  S
C1083      C1084   1.211       .  T
C1085      C1086   1.204   1_565  T
C1086      C1087   1.411       .  S
C1087      C1088   1.205       .  T
C1089      C1090   1.218       .  T
C1090      C1091   1.433       .  S
C1091      C1092   1.218       .  T
C1093      C1094   1.203       .  T
C1094      C1095   1.409       .  S
C1095      C1096   1.203       .  T
C1097      C1098   1.205   1_455  T
C1098      C1099   1.411       .  S
C1099      C1100   1.204       .  T
C1101      C1102   1.211       .  T
C1102      C1103   1.421       .  S
C1103      C1104   1.211   1_556  T
C1105      C1106   1.218       .  T
C1106      C1107   1.433       .  S
C1107      C1108   1.218       .  T
C1109      C1110   1.203       .  T
C1110      C1111   1.409       .  S
C1111      C1112   1.203       .  T
C1113      C1114   1.211       .  T
C1114      C1115   1.421       .  S
C1115      C1116   1.211       .  T
C1117      C1118   1.204       .  T
C1118      C1119   1.411       .  S
C1119      C1120   1.205       .  T
C1121      C1122   1.211       .  T
C1122      C1123   1.421       .  S
C1123      C1124   1.211       .  T
C1125      C1126   1.205       .  T
C1126      C1127   1.411       .  S
C1127      C1128   1.204   1_655  T
C1129      C1130   1.211       .  T
C1130      C1131   1.421       .  S
C1131      C1132   1.211       .  T
C1133      C1134   1.204       .  T
C1134      C1135   1.411       .  S
C1135      C1136   1.205       .  T
C1137      C1138   1.211       .  T
C1138      C1139   1.421       .  S
C1139      C1140   1.211       .  T
C1141      C1142   1.205       .  T
C1142      C1143   1.411       .  S
C1143      C1144   1.204   1_455  T
C1145      C1146   1.219   1_455  T
C1147      C1148   1.219       .  T
C1149      C1150   1.203   1_455  T
C1150      C1151   1.409       .  S
C1151      C1152   1.203       .  T
C1153      C1154   1.211       .  T
C1154      C1155   1.421       .  S
C1155      C1156   1.211   1_556  T
C1157      C1158   1.205   1_565  T
C1158      C1159   1.411       .  S
C1159      C1160   1.204       .  T
C1162      C1163   1.421       .  S
C1163      C1164   1.211       .  T
C1165      C1166   1.205       .  T
C1166      C1167   1.411       .  S
C1167      C1168   1.205       .  T
C1169      C1170   1.211       .  T
C1170      C1171   1.421       .  S
C1171      C1172   1.211       .  T
C1173      C1174   1.204       .  T
C1174      C1175   1.411       .  S
C1175      C1176   1.205       .  T
C1177      C1178   1.219       .  T
C1178      C1179   1.433       .  S
C1179      C1180   1.219       .  T
C1181      C1182   1.203       .  T
C1182      C1183   1.409       .  S
C1183      C1184   1.203       .  T
C1185      C1186   1.211       .  T
C1186      C1187   1.421       .  S
C1187      C1188   1.211       .  T
C1189      C1190   1.205       .  T
C1190      C1191   1.410       .  S
C1191      C1192   1.204       .  T
C1193      C1194   1.211       .  T
C1194      C1195   1.421       .  S
C1195      C1196   1.211       .  T
C1197      C1198   1.204       .  T
C1198      C1199   1.411       .  S
C1199      C1200   1.205       .  T
C1201      C1202   1.211       .  T
C1202      C1203   1.421       .  S
C1203      C1204   1.211       .  T
C1205      C1206   1.205       .  T
C1206      C1207   1.411       .  S
C1207      C1208   1.204       .  T
C1209      C1210   1.211       .  T
C1210      C1211   1.421       .  S
C1211      C1212   1.211       .  T
C1213      C1214   1.204       .  T
C1214      C1215   1.410       .  S
C1215      C1216   1.205       .  T
C1217      C1218   1.218       .  T
C1219      C1220   1.218       .  T
C1221      C1222   1.203       .  T
C1222      C1223   1.408       .  S
C1223      C1224   1.203       .  T
