geometry optimzed in LAMMPS
_audit_creation_date              2020-12-01 
_audit_creation_method            'lammps2cif' 
_symmetry_space_group_name_H-M    'P1' 
_symmetry_Int_Tables_number       1 
_symmetry_cell_setting            triclinic 
loop_ 
_symmetry_equiv_pos_as_xyz 
  x,y,z 
_cell_length_a                    39.23206973 
_cell_length_b                    39.21186927122076 
_cell_length_c                    72.08337354879454 
_cell_angle_alpha                 89.8881441499465 
_cell_angle_beta                  89.97677463488075 
_cell_angle_gamma                 120.0050518901432 
loop_ 
_atom_site_label 
_atom_site_type_symbol 
_atom_site_fract_x 
_atom_site_fract_y 
_atom_site_fract_z 
_atom_site_charge 
Zr1        Zr  0.73540238  0.83991064  0.40152807     2.17500
O2          O  0.76414171  0.88471063  0.42769012    -0.51800
O3          O  0.78884158  0.82694344  0.39644809    -0.75000
O4          O  0.73332064  0.80446464  0.42954907    -0.81800
O5          O  0.77374418  0.92123758  0.36514012    -0.83500
O6          O  0.67340000  0.74874682  0.43134311    -0.79200
O7          O  0.78786937  0.90526392  0.39338131    -0.90800
O8          O  0.77040686  0.78259448  0.37297734    -0.76800
O9          O  0.70081339  0.77141923  0.39478475    -0.86200
O10         O  0.74002663  0.83499531  0.36880271    -0.85900
O11         O  0.66961722  0.81603689  0.41260818    -0.72700
O12         O  0.70636487  0.87532167  0.38805183    -0.84800
Zr13       Zr  0.60914793  0.77677912  0.35840242     2.26400
Zr14       Zr  0.63455108  0.74743267  0.40470903     2.06300
Zr15       Zr  0.70960209  0.86866066  0.35523535     2.10000
Zr16       Zr  0.70533218  0.76651039  0.36225421     1.78800
O17         O  0.70321832  0.92689367  0.35123496    -0.93600
O18         O  0.69684018  0.70319986  0.37201637    -0.41400
O19         O  0.67520926  0.80008875  0.34811039    -0.78100
O20         O  0.63823697  0.74097857  0.37179942    -0.96800
O21         O  0.60485715  0.78177939  0.39110075    -0.90100
O22         O  0.64362363  0.84536569  0.36527851    -0.92900
C23         C  0.79491390  0.80506480  0.38532041     1.00900
C24         C  0.79584739  0.92849611  0.37943898     1.13800
C25         C  0.70826912  0.77212456  0.43744074     1.04600
O26         O  0.62813803  0.68277260  0.40829968    -0.95100
O27         O  0.56808563  0.69663919  0.39615458    -0.90800
O28         O  0.55322721  0.71617512  0.36911664    -0.83900
C29         C  0.54478879  0.69192960  0.38261751     1.11200
O30         O  0.66850417  0.89454579  0.42443178    -0.97000
Zr31       Zr  0.63995899  0.84991783  0.39818179     1.88900
O32         O  0.55885037  0.79536919  0.36247119    -0.73700
O33         O  0.59413182  0.73969431  0.43180490    -0.52900
O34         O  0.59412849  0.82175335  0.42407114    -0.97600
O35         O  0.64905114  0.91545500  0.39304444    -0.54800
O36         O  0.57792852  0.83920048  0.38628125    -0.74200
C37         C  0.55376643  0.81798679  0.37362507     0.98100
O38         O  0.57560807  0.72734054  0.33411995    -0.63000
O39         O  0.75468200  0.88572634  0.32910265    -0.57800
O40         O  0.61756655  0.80284228  0.32692220    -0.94500
O41         O  0.67919986  0.85563688  0.32477589    -0.92900
O42         O  0.74688474  0.78507851  0.33473635    -0.93300
O43         O  0.67745297  0.71927516  0.33700834    -0.92100
C44         C  0.64612321  0.83023730  0.31762602     1.17000
H45         H  0.76707179  0.84702844  0.36472939     0.32900
H46         H  0.62315560  0.71357513  0.36830672     0.43800
H47         H  0.63240300  0.85903725  0.35880553     0.37300
H48         H  0.66986002  0.81925198  0.42590514     0.33800
H49         H  0.71556157  0.69949468  0.36425394     0.25600
H50         H  0.58882289  0.71444881  0.43744358     0.31500
H51         H  0.58038327  0.83711410  0.42463574     0.37400
H52         H  0.74021127  0.80268005  0.32771880     0.31900
H53         H  0.76775235  0.91473612  0.32799149     0.30800
H54         H  0.72301902  0.94271436  0.34166574     0.32400
H55         H  0.62433357  0.91379972  0.39741809     0.31400
H56         H  0.65496561  0.72183091  0.33254634     0.35400
H57         H  0.59521384  0.73345532  0.32414959     0.28100
H58         H  0.78519182  0.88012034  0.43245189     0.32400
H59         H  0.64689100  0.89757050  0.42974583     0.35200
H60         H  0.77549344  0.88035919  0.33340934     0.27800
H61         H  0.57170887  0.70215163  0.33919521     0.40700
H62         H  0.63134235  0.67517130  0.39561575     0.30800
H63         H  0.70817033  0.70781626  0.38465428     0.38400
H64         H  0.64848381  0.91805623  0.37940456     0.30200
H65         H  0.61204991  0.76003854  0.44066665     0.30300
H66         H  0.74363628  0.87429926  0.43747009     0.30600
Zr67       Zr  0.85393361  0.72624335  0.59551096     2.17500
O68         O  0.90297427  0.75307858  0.57088678    -0.51800
O69         O  0.84647380  0.78327962  0.60050601    -0.75000
O70         O  0.82181494  0.72630558  0.56636643    -0.81800
O71         O  0.93242076  0.75982147  0.63301097    -0.83500
O72         O  0.76476039  0.66761645  0.56462314    -0.79200
O73         O  0.92012981  0.77533994  0.60424081    -0.90800
O74         O  0.80194438  0.76743996  0.62375694    -0.76800
O75         O  0.78503816  0.69452281  0.60117034    -0.86200
O76         O  0.84711161  0.73104885  0.62817563    -0.85900
O77         O  0.82804283  0.65998250  0.58467203    -0.72700
O78         O  0.88519777  0.69420113  0.61031354    -0.84800
Zr79       Zr  0.78253203  0.59957282  0.63836583     2.26400
Zr80       Zr  0.75895804  0.62769045  0.59154438     2.06300
Zr81       Zr  0.87645136  0.69755815  0.64297070     2.10000
Zr82       Zr  0.77824637  0.69946204  0.63355735     1.78800
O83         O  0.93317623  0.68994961  0.64950527    -0.93600
O84         O  0.71883901  0.69688187  0.62173468    -0.41400
O85         O  0.80745614  0.66589693  0.64870769    -0.78100
O86         O  0.75033771  0.63165775  0.62422601    -0.96800
O87         O  0.78992473  0.59560078  0.60592946    -0.90100
O88         O  0.85158169  0.63141674  0.63284230    -0.92900
C89         C  0.82664982  0.79177848  0.61185153     1.00900
C90         C  0.94205456  0.78196475  0.61853742     1.13800
C91         C  0.78955737  0.70179648  0.55818269     1.04600
O92         O  0.69521494  0.62354261  0.58819701    -0.95100
O93         O  0.70913198  0.55947106  0.59834029    -0.90800
O94         O  0.72384197  0.54350837  0.62637662    -0.83900
C95         C  0.70258663  0.53522633  0.61175503     1.11200
O96         O  0.91169243  0.65954447  0.57754130    -0.97000
Zr97       Zr  0.85845070  0.62781301  0.60010699     1.88900
O98         O  0.79848809  0.54711708  0.63557863    -0.73700
O99         O  0.75053503  0.58843582  0.56395945    -0.52900
O100        O  0.83984952  0.58973799  0.57150173    -0.97600
O101        O  0.91738990  0.62671979  0.60991029    -0.54800
O102        O  0.83470925  0.56029232  0.60914275    -0.74200
C103        C  0.81516152  0.53793187  0.62273543     0.98100
O104        O  0.73115317  0.57088516  0.66207239    -0.63000
O105        O  0.89216928  0.74247724  0.66901587    -0.57800
O106        O  0.80586343  0.60320966  0.66979055    -0.94500
O107        O  0.85794982  0.66503294  0.67316824    -0.92900
O108        O  0.79414897  0.73716852  0.66221776    -0.93300
O109        O  0.72654771  0.67377649  0.65701367    -0.92100
C110        C  0.83231308  0.63115500  0.67962512     1.17000
H111        H  0.86033661  0.75805304  0.63232437     0.32900
H112        H  0.72265440  0.61736963  0.62729798     0.43800
H113        H  0.86353826  0.61892135  0.63968011     0.37300
H114        H  0.83218887  0.66011872  0.57145192     0.33800
H115        H  0.71701685  0.71775416  0.62860822     0.25600
H116        H  0.72711359  0.58632371  0.55767989     0.31500
H117        H  0.81120825  0.57133594  0.57274863     0.37400
H118        H  0.80560387  0.72517145  0.67038673     0.31900
H119        H  0.92089608  0.75438410  0.67084445     0.30800
H120        H  0.94650895  0.70789405  0.66004631     0.32400
H121        H  0.90921404  0.60868835  0.62071230     0.31400
H122        H  0.72024827  0.64625922  0.65906126     0.35400
H123        H  0.73622715  0.59316901  0.67027175     0.28100
H124        H  0.89894770  0.77331983  0.56467631     0.32400
H125        H  0.91605896  0.63840199  0.57272106     0.35200
H126        H  0.88856197  0.76416398  0.66428166     0.27800
H127        H  0.70632526  0.56464255  0.65573443     0.40700
H128        H  0.68626397  0.62365314  0.60102210     0.30800
H129        H  0.72541598  0.70706107  0.60887710     0.38400
H130        H  0.93466361  0.65317818  0.61521006     0.30200
H131        H  0.77287417  0.60554547  0.55572987     0.30300
H132        H  0.89451922  0.73148569  0.56178107     0.30600
Zr133      Zr  0.15746709  0.87481981  0.40475871     2.17500
O134        O  0.11268188  0.85483576  0.43120837    -0.51800
O135        O  0.16687541  0.94037548  0.40029309    -0.75000
O136        O  0.19227319  0.90635355  0.43320130    -0.81800
O137        O  0.07463395  0.82728776  0.36978739    -0.83500
O138        O  0.24813660  0.90230809  0.43433820    -0.79200
O139        O  0.09092936  0.85943836  0.39752188    -0.90800
O140        O  0.21215749  0.97011913  0.37737821    -0.76800
O141        O  0.22623315  0.91030275  0.39846370    -0.86200
O142        O  0.16288169  0.88753278  0.37222773    -0.85900
O143        O  0.18209097  0.83247136  0.41443948    -0.72700
O144        O  0.12370796  0.81189578  0.38978055    -0.84800
Zr145      Zr  0.22325699  0.81823948  0.35966993     2.26400
Zr146      Zr  0.25100053  0.86763106  0.40692047     2.06300
Zr147      Zr  0.13078049  0.82496115  0.35719137     2.10000
Zr148      Zr  0.23161835  0.92349466  0.36618339     1.78800
O149        O  0.07433713  0.76118248  0.34949603    -0.93600
O150        O  0.29294432  0.97889202  0.37729005    -0.41400
O151        O  0.19948241  0.86131148  0.35051356    -0.78100
O152        O  0.25789254  0.88164522  0.37436038    -0.96800
O153        O  0.21739610  0.80523512  0.39204473    -0.90100
O154        O  0.15458711  0.78201786  0.36604268    -0.92900
C155        C  0.18812003  0.96974893  0.38963007     1.00900
C156        C  0.06675809  0.84109070  0.38428399     1.13800
C157        C  0.22459676  0.91317807  0.44091510     1.04600
O158        O  0.31645983  0.92522105  0.40945547    -0.95100
O159        O  0.29963500  0.84843998  0.39831854    -0.90800
O160        O  0.28288520  0.82083071  0.36981226    -0.83900
C161        C  0.30511986  0.83189131  0.38407729     1.11200
O162        O  0.09385777  0.74796224  0.42020096    -0.97000
Zr163      Zr  0.14909520  0.77029653  0.39872253     1.88900
O164        O  0.20495421  0.74898425  0.36205978    -0.73700
O165        O  0.25947942  0.83455363  0.43368145    -0.52900
O166        O  0.16378930  0.74969747  0.42812938    -0.97600
O167        O  0.09111803  0.71054008  0.38783054    -0.54800
O168        O  0.17433547  0.72762808  0.38995502    -0.74200
C169        C  0.19136129  0.72408482  0.37551833     0.98100
O170        O  0.27435554  0.83855939  0.33580289    -0.63000
O171        O  0.11390267  0.85919614  0.33389117    -0.57800
O172        O  0.19874377  0.80342253  0.32814280    -0.94500
O173        O  0.14494157  0.81051058  0.32622070    -0.92900
O174        O  0.21571461  0.94937675  0.33884304    -0.93300
O175        O  0.28211151  0.94520966  0.34224327    -0.92100
C176        C  0.17104622  0.80394565  0.31894660     1.17000
H177        H  0.15023467  0.90224969  0.36861556     0.32900
H178        H  0.28535650  0.89447885  0.37090232     0.43800
H179        H  0.14184110  0.75790450  0.35901169     0.37300
H180        H  0.17851689  0.82813690  0.42767231     0.33800
H181        H  0.29603285  0.00179196  0.37008274     0.25600
H182        H  0.28146263  0.85577178  0.44075677     0.31500
H183        H  0.15245095  0.72086535  0.42696163     0.37400
H184        H  0.20033360  0.92610871  0.33084864     0.31900
H185        H  0.08870861  0.83861730  0.32854966     0.30800
H186        H  0.05595441  0.76745505  0.34295678     0.32400
H187        H  0.10050153  0.70017613  0.37774544     0.31400
H188        H  0.27211474  0.92291433  0.33343519     0.35400
H189        H  0.26839925  0.85327750  0.32640469     0.28100
H190        H  0.11523239  0.87954950  0.43615642     0.32400
H191        H  0.08574778  0.72030311  0.42327868     0.35200
H192        H  0.10687692  0.87645580  0.34093552     0.27800
H193        H  0.29902606  0.85931069  0.34148326     0.40700
H194        H  0.32108544  0.93904358  0.39742060     0.30800
H195        H  0.28716590  0.98364985  0.39008638     0.38400
H196        H  0.07497003  0.71996454  0.38149473     0.30200
H197        H  0.23594726  0.82663952  0.44151402     0.30300
H198        H  0.12447562  0.84584738  0.44082099     0.30600
Zr199      Zr  0.27544400  0.10774136  0.59718030     2.17500
O200        O  0.23736934  0.11742682  0.57318309    -0.51800
O201        O  0.22381810  0.04144217  0.60387599    -0.75000
O202        O  0.27684799  0.07566099  0.56831462    -0.81800
O203        O  0.24671301  0.16259137  0.63176625    -0.83500
O204        O  0.33437424  0.07484074  0.56719694    -0.79200
O205        O  0.22602854  0.12558831  0.60553817    -0.90800
O206        O  0.24160503  0.01738904  0.62828056    -0.76800
O207        O  0.30925624  0.07316803  0.60438722    -0.86200
O208        O  0.27384939  0.10171585  0.63010619    -0.85900
O209        O  0.34033954  0.14705376  0.58448620    -0.72700
O210        O  0.30772646  0.17363906  0.60900901    -0.84800
Zr211      Zr  0.40662812  0.17323913  0.63731782     2.26400
Zr212      Zr  0.37491600  0.11323211  0.59296140     2.06300
Zr213      Zr  0.30767368  0.16735217  0.64199248     2.10000
Zr214      Zr  0.30783344  0.06734965  0.63715248     1.78800
O215        O  0.31817441  0.23327738  0.64714205    -0.93600
O216        O  0.31471011  0.01075478  0.62917364    -0.41400
O217        O  0.34146267  0.13271442  0.64945851    -0.78100
O218        O  0.37406601  0.10638796  0.62605231    -0.96800
O219        O  0.40806459  0.17911899  0.60447273    -0.90100
O220        O  0.37292017  0.20799116  0.63019611    -0.92900
C221        C  0.21711806  0.01434841  0.61570408     1.00900
C222        C  0.22219586  0.14603131  0.61845903     1.13800
C223        C  0.30057088  0.06616476  0.56064894     1.04600
O224        O  0.37949454  0.05392401  0.58918965    -0.95100
O225        O  0.43998981  0.12440483  0.60096023    -0.90800
O226        O  0.45385923  0.15267777  0.62947633    -0.83900
C227        C  0.46151404  0.13736631  0.61553744     1.11200
O228        O  0.33717984  0.22854039  0.57437498    -0.97000
Zr229      Zr  0.37295434  0.21221869  0.59708222     1.88900
O230        O  0.45813986  0.24027030  0.62955733    -0.73700
O231        O  0.41434290  0.14618556  0.56561859    -0.52900
O232        O  0.40640320  0.22413873  0.56726597    -0.97600
O233        O  0.37500366  0.27416329  0.60388049    -0.54800
O234        O  0.44070011  0.25939692  0.60319862    -0.74200
C235        C  0.46522365  0.26429782  0.61601747     0.98100
O236        O  0.45190475  0.18256014  0.66258801    -0.63000
O237        O  0.25986952  0.14105738  0.66724173    -0.57800
O238        O  0.39799883  0.18712250  0.66933727    -0.94500
O239        O  0.33864440  0.18319761  0.67224937    -0.92900
O240        O  0.26956033  0.05074002  0.66571730    -0.93300
O241        O  0.33787333  0.04894866  0.66188291    -0.92100
C242        C  0.37127244  0.18870694  0.67897085     1.17000
H243        H  0.24713215  0.08777972  0.63470216     0.32900
H244        H  0.38791302  0.09285437  0.62966632     0.43800
H245        H  0.38565663  0.23358183  0.63603311     0.37300
H246        H  0.33896414  0.14864195  0.57115749     0.33800
H247        H  0.29460859  0.98884513  0.63676588     0.25600
H248        H  0.42251818  0.12776169  0.56075823     0.31500
H249        H  0.42095397  0.25313772  0.56579511     0.37400
H250        H  0.25441513  0.02158571  0.66596617     0.31900
H251        H  0.25208658  0.16117727  0.66937627     0.30800
H252        H  0.31938500  0.24387825  0.63453229     0.32400
H253        H  0.39466430  0.29345017  0.59511278     0.31400
H254        H  0.36412920  0.07252080  0.66369664     0.35400
H255        H  0.44749237  0.15598401  0.66555495     0.28100
H256        H  0.21978990  0.09100430  0.56791114     0.32400
H257        H  0.35726136  0.25209706  0.56763360     0.35200
H258        H  0.23613543  0.11827187  0.66195720     0.27800
H259        H  0.47878414  0.19713039  0.65728630     0.40700
H260        H  0.38350831  0.04691358  0.60188832     0.30800
H261        H  0.30492694  0.00410926  0.61628039     0.38400
H262        H  0.38776841  0.28250572  0.61616160     0.30200
H263        H  0.39541294  0.14545987  0.55632831     0.30300
H264        H  0.25655777  0.13234284  0.56324983     0.30600
Zr265      Zr  0.11903303  0.26627870  0.40198627     2.17500
O266        O  0.13329760  0.23966350  0.42961316    -0.51800
O267        O  0.05453464  0.21092915  0.39536066    -0.75000
O268        O  0.08327354  0.27030991  0.42877982    -0.81800
O269        O  0.16299728  0.22518508  0.36844563    -0.83500
O270        O  0.08872407  0.33082302  0.42915068    -0.79200
O271        O  0.13370597  0.21395358  0.39680042    -0.90800
O272        O  0.02847040  0.22806805  0.37138672    -0.76800
O273        O  0.08588646  0.30097996  0.39379502    -0.86200
O274        O  0.11077000  0.25959741  0.36913549    -0.85900
O275        O  0.16111800  0.33267023  0.41219114    -0.72700
O276        O  0.18389050  0.29416547  0.38903583    -0.84800
Zr277      Zr  0.18527399  0.38975928  0.35710704     2.26400
Zr278      Zr  0.12867222  0.36789846  0.40268655     2.06300
Zr279      Zr  0.17530220  0.28865173  0.35612092     2.10000
Zr280      Zr  0.07739355  0.29425489  0.36124374     1.78800
O281        O  0.24116672  0.29799220  0.35256734    -0.93600
O282        O  0.02082830  0.30035285  0.37030404    -0.41400
O283        O  0.14171934  0.32308627  0.34778986    -0.78100
O284        O  0.11963453  0.36221802  0.36969455    -0.96800
O285        O  0.19329577  0.39645473  0.38979169    -0.90100
O286        O  0.21864700  0.35524586  0.36540451    -0.92900
C287        C  0.02711608  0.20360260  0.38365802     1.00900
C288        C  0.14888147  0.20464017  0.38333945     1.13800
C289        C  0.07591578  0.29606605  0.43580256     1.04600
O290        O  0.07224799  0.37772713  0.40455975    -0.95100
O291        O  0.14716695  0.43463030  0.39322504    -0.90800
O292        O  0.17973924  0.44656135  0.36575582    -0.83900
C293        C  0.16547209  0.45670635  0.37926943     1.11200
O294        O  0.24352959  0.32911411  0.42230067    -0.97000
Zr295      Zr  0.22523665  0.36108187  0.39840434     1.88900
O296        O  0.25492075  0.43830998  0.36091592    -0.73700
O297        O  0.16051729  0.40850333  0.42980458    -0.52900
O298        O  0.23939715  0.39791736  0.42729410    -0.97600
O299        O  0.28576595  0.36060169  0.39123436    -0.54800
O300        O  0.27198946  0.42801827  0.38961671    -0.74200
C301        C  0.27835786  0.44855321  0.37485592     0.98100
O302        O  0.18003089  0.42471427  0.33019910    -0.63000
O303        O  0.15401858  0.24119312  0.33086905    -0.57800
O304        O  0.19876795  0.37742369  0.32570069    -0.94500
O305        O  0.18660004  0.31450414  0.32444157    -0.92900
O306        O  0.05646692  0.25437742  0.33323307    -0.93300
O307        O  0.05856006  0.32305987  0.33610815    -0.92100
C308        C  0.19519576  0.34750160  0.31676593     1.17000
H309        H  0.09615135  0.23241709  0.36527778     0.32900
H310        H  0.10786092  0.37743993  0.36559139     0.43800
H311        H  0.24380479  0.36610878  0.35921141     0.37300
H312        H  0.16343041  0.33310145  0.42553528     0.33800
H313        H  0.99865130  0.27998774  0.36297993     0.25600
H314        H  0.14138222  0.41589739  0.43451273     0.31500
H315        H  0.26799056  0.41703714  0.42686320     0.37400
H316        H  0.02733641  0.24011488  0.33377006     0.31900
H317        H  0.17001697  0.22820441  0.33203788     0.30800
H318        H  0.23946019  0.27390540  0.35790709     0.32400
H319        H  0.29879560  0.38036018  0.38126066     0.31400
H320        H  0.08317837  0.34739552  0.33270921     0.35400
H321        H  0.15499182  0.42476241  0.33182572     0.28100
H322        H  0.10735226  0.21898578  0.43429657     0.32400
H323        H  0.26928297  0.34976233  0.42712708     0.35200
H324        H  0.12688820  0.22069070  0.33418156     0.27800
H325        H  0.20099880  0.45253577  0.33165536     0.40700
H326        H  0.05560061  0.36310569  0.39385237     0.30800
H327        H  0.01494320  0.29049397  0.38323047     0.38400
H328        H  0.27687244  0.33496459  0.38509033     0.30200
H329        H  0.16049404  0.39018624  0.43928197     0.30300
H330        H  0.14278831  0.26095657  0.43895375     0.30600
Zr331      Zr  0.89827888  0.15802625  0.59566204     2.17500
O332        O  0.89307564  0.11510123  0.57005737    -0.51800
O333        O  0.96428364  0.17147211  0.60318222    -0.75000
O334        O  0.92776135  0.19387777  0.56685435    -0.81800
O335        O  0.84894888  0.07280509  0.63021183    -0.83500
O336        O  0.92058307  0.24779841  0.56501368    -0.79200
O337        O  0.87834391  0.08932408  0.60182851    -0.90800
O338        O  0.98785454  0.21587811  0.62663739    -0.76800
O339        O  0.92855267  0.22665699  0.60224071    -0.86200
O340        O  0.90662851  0.16316024  0.62853288    -0.85900
O341        O  0.85360411  0.17832287  0.58422441    -0.72700
O342        O  0.83385177  0.12065340  0.60890451    -0.84800
Zr343      Zr  0.82737735  0.21536787  0.63749190     2.26400
Zr344      Zr  0.88325651  0.24689930  0.59192756     2.06300
Zr345      Zr  0.84221951  0.12727133  0.64180404     2.10000
Zr346      Zr  0.93693878  0.23174060  0.63491637     1.78800
O347        O  0.77806660  0.07045836  0.64869391    -0.93600
O348        O  0.99585311  0.29399424  0.62752706    -0.41400
O349        O  0.87285041  0.19587411  0.64833667    -0.78100
O350        O  0.89273571  0.25396398  0.62475031    -0.96800
O351        O  0.81873026  0.20981356  0.60485098    -0.90100
O352        O  0.79674069  0.14671131  0.63120404    -0.92900
C353        C  0.99090469  0.19262170  0.61506456     1.00900
C354        C  0.86154299  0.06493731  0.61528523     1.13800
C355        C  0.93299460  0.22537354  0.55872433     1.04600
O356        O  0.93890523  0.31328795  0.58836689    -0.95100
O357        O  0.86560514  0.29645655  0.60003349    -0.90800
O358        O  0.83195969  0.27623024  0.62720912    -0.83900
C359        C  0.84670832  0.30041242  0.61364043     1.11200
O360        O  0.77607032  0.09894890  0.57137914    -0.97000
Zr361      Zr  0.78974364  0.14159347  0.59823239     1.88900
O362        O  0.75659710  0.18982725  0.63403219    -0.73700
O363        O  0.84747077  0.25088346  0.56516459    -0.52900
O364        O  0.76628360  0.16542400  0.57277868    -0.97600
O365        O  0.74065205  0.07278313  0.60359239    -0.54800
O366        O  0.73461400  0.14544181  0.61049505    -0.74200
C367        C  0.72934788  0.16489832  0.62330219     0.98100
O368        O  0.82912582  0.25751631  0.66282436    -0.63000
O369        O  0.87238075  0.10752586  0.66598582    -0.57800
O370        O  0.81903764  0.19533343  0.66968248    -0.94500
O371        O  0.82960956  0.14365777  0.67269808    -0.92900
O372        O  0.95150819  0.21371198  0.66499012    -0.93300
O373        O  0.95289463  0.28411494  0.65728185    -0.92100
C374        C  0.82235042  0.16972189  0.67940338     1.17000
H375        H  0.92203382  0.15182839  0.63298550     0.32900
H376        H  0.90369458  0.28129191  0.62813163     0.43800
H377        H  0.77194475  0.13194381  0.63764635     0.37300
H378        H  0.85093701  0.17490913  0.57093638     0.33800
H379        H  0.01688951  0.29413246  0.63517721     0.25600
H380        H  0.86495672  0.27736304  0.55986440     0.31500
H381        H  0.73720759  0.15012506  0.57365863     0.37400
H382        H  0.97978770  0.23264625  0.66701046     0.31900
H383        H  0.85305534  0.07952970  0.66854068     0.30800
H384        H  0.78117967  0.06132705  0.66105713     0.32400
H385        H  0.71543554  0.07039001  0.59955656     0.31400
H386        H  0.92703820  0.27927824  0.66186285     0.35400
H387        H  0.85406684  0.28278011  0.66127435     0.28100
H388        H  0.92024285  0.12522125  0.56543407     0.32400
H389        H  0.74950967  0.09231453  0.56704618     0.35200
H390        H  0.89477233  0.10699681  0.65994127     0.27800
H391        H  0.80796456  0.26366715  0.66029174     0.40700
H392        H  0.96019348  0.31335107  0.59575582     0.30800
H393        H  0.00257186  0.29086004  0.61464089     0.38400
H394        H  0.73834787  0.06988909  0.61724593     0.30200
H395        H  0.84792239  0.23243923  0.55594105     0.30300
H396        H  0.87923921  0.12053669  0.56000357     0.30600
Zr397      Zr  0.15470290  0.25402756  0.09384836     2.17500
O398        O  0.11304768  0.22001314  0.06728019    -0.51800
O399        O  0.16841348  0.20197303  0.10119194    -0.75000
O400        O  0.19252791  0.25679128  0.06663796    -0.81800
O401        O  0.06915042  0.21867170  0.12778905    -0.83500
O402        O  0.24392491  0.31923561  0.06323303    -0.79200
O403        O  0.08710102  0.20361469  0.10031048    -0.90800
O404        O  0.21322422  0.22302123  0.12445107    -0.76800
O405        O  0.22306436  0.29177256  0.10067945    -0.86200
O406        O  0.15911916  0.25100183  0.12672322    -0.85900
O407        O  0.17635515  0.31886409  0.08186239    -0.72700
O408        O  0.11705564  0.28123565  0.10636493    -0.84800
Zr409      Zr  0.21147339  0.38252889  0.13504379     2.26400
Zr410      Zr  0.24462481  0.35730601  0.09003238     2.06300
Zr411      Zr  0.12319541  0.28001513  0.13936833     2.10000
Zr412      Zr  0.22764708  0.28892527  0.13329619     1.78800
O413        O  0.06765718  0.28969088  0.14589479    -0.93600
O414        O  0.29143095  0.29886063  0.12352242    -0.41400
O415        O  0.19166216  0.31765530  0.14597824    -0.78100
O416        O  0.25059511  0.35550059  0.12311767    -0.96800
O417        O  0.20740665  0.38540013  0.10222244    -0.90100
O418        O  0.14310518  0.34487241  0.12818778    -0.92900
C419        C  0.19068347  0.19709178  0.11259239     1.00900
C420        C  0.06225982  0.19697860  0.11339047     1.13800
C421        C  0.22301323  0.28320740  0.05802975     1.04600
O422        O  0.30971959  0.36511034  0.08577133    -0.95100
O423        O  0.29533474  0.42357273  0.09909555    -0.90800
O424        O  0.27612193  0.43587357  0.12680247    -0.83900
C425        C  0.30025607  0.44554238  0.11322444     1.11200
O426        O  0.09865743  0.31621839  0.06773486    -0.97000
Zr427      Zr  0.13934814  0.34622218  0.09505831     1.88900
O428        O  0.18575866  0.42732633  0.13024714    -0.73700
O429        O  0.25105598  0.39695950  0.06280242    -0.52900
O430        O  0.16118109  0.39133710  0.06870252    -0.97600
O431        O  0.07136120  0.32922276  0.10070887    -0.54800
O432        O  0.14541096  0.40709459  0.10532780    -0.74200
C433        C  0.16312254  0.43111454  0.11854886     0.98100
O434        O  0.24399405  0.42868586  0.16046047    -0.63000
O435        O  0.10107021  0.22959169  0.16348802    -0.57800
O436        O  0.19437237  0.36799914  0.16761329    -0.94500
O437        O  0.14127381  0.30683029  0.17064245    -0.92900
O438        O  0.21147539  0.25316409  0.16259443    -0.93300
O439        O  0.27623069  0.31932979  0.15787728    -0.92100
C440        C  0.16864482  0.33933084  0.17745897     1.17000
H441        H  0.14779387  0.22426964  0.13118529     0.32900
H442        H  0.27778582  0.37132143  0.12682083     0.43800
H443        H  0.12833614  0.35531436  0.13423382     0.37300
H444        H  0.17347419  0.31789467  0.06853466     0.33800
H445        H  0.29551216  0.28019900  0.13116064     0.25600
H446        H  0.25040165  0.42017501  0.06772474     0.31500
H447        H  0.18389821  0.41600512  0.07332866     0.37400
H448        H  0.18889178  0.25502581  0.16751335     0.31900
H449        H  0.07300282  0.22117843  0.16557655     0.30800
H450        H  0.05767419  0.27704749  0.15812358     0.32400
H451        H  0.05707566  0.30039892  0.10282184     0.31400
H452        H  0.27949419  0.34589508  0.15938890     0.35400
H453        H  0.27006369  0.43076388  0.16196867     0.28100
H454        H  0.11948250  0.19940955  0.06388516     0.32400
H455        H  0.08685854  0.33273991  0.06471686     0.35200
H456        H  0.10073313  0.20660531  0.15763523     0.27800
H457        H  0.24966667  0.45476914  0.15577953     0.40700
H458        H  0.31840044  0.36316577  0.09842400     0.30800
H459        H  0.28717033  0.28798772  0.11080692     0.38400
H460        H  0.07166419  0.34052914  0.11301252     0.30200
H461        H  0.27861083  0.40747783  0.05867349     0.30300
H462        H  0.12311358  0.23912523  0.05688466     0.30600
Zr463      Zr  0.27088172  0.14037591  0.90067148     2.17500
O464        O  0.23475289  0.09368729  0.92548732    -0.51800
O465        O  0.21985360  0.15573134  0.89446503    -0.75000
O466        O  0.27125293  0.17344925  0.92928616    -0.81800
O467        O  0.24041188  0.05873969  0.86515725    -0.83500
O468        O  0.33137926  0.22826978  0.93220771    -0.79200
O469        O  0.21993944  0.07461980  0.89164974    -0.90800
O470        O  0.24090692  0.20245402  0.87198914    -0.76800
O471        O  0.30753845  0.20952159  0.89534898    -0.86200
O472        O  0.26991668  0.14896133  0.86796752    -0.85900
O473        O  0.33498576  0.16134243  0.91315009    -0.72700
O474        O  0.30035855  0.10555713  0.88725040    -0.84800
Zr475      Zr  0.40188395  0.20482135  0.86071482     2.26400
Zr476      Zr  0.37242399  0.23066563  0.90650497     2.06300
Zr477      Zr  0.30078445  0.11558511  0.85448491     2.10000
Zr478      Zr  0.30695104  0.21820814  0.86286319     1.78800
O479        O  0.31055243  0.06091272  0.84613641    -0.93600
O480        O  0.31685867  0.28162295  0.87324761    -0.41400
O481        O  0.33746159  0.18481893  0.84912881    -0.78100
O482        O  0.37283285  0.24102319  0.87368261    -0.96800
O483        O  0.40278615  0.19653823  0.89331158    -0.90100
O484        O  0.36538845  0.13562216  0.86593477    -0.92900
C485        C  0.21503076  0.17886176  0.88363344     1.00900
C486        C  0.21621912  0.05055459  0.87868099     1.13800
C487        C  0.29595067  0.20510895  0.93770423     1.04600
O488        O  0.38117974  0.29601205  0.91127988    -0.95100
O489        O  0.43931433  0.28241134  0.89976610    -0.90800
O490        O  0.45413973  0.26781366  0.87150813    -0.83900
C491        C  0.46258195  0.28949383  0.88594527     1.11200
O492        O  0.33100651  0.07232389  0.92019410    -0.97000
Zr493      Zr  0.36503411  0.12770105  0.89885655     1.88900
O494        O  0.44895913  0.18221928  0.86544091    -0.73700
O495        O  0.40985871  0.23371959  0.93402407    -0.52900
O496        O  0.39712971  0.14420724  0.92907393    -0.97600
O497        O  0.36271047  0.06715414  0.88881233    -0.54800
O498        O  0.43245361  0.14735003  0.89233087    -0.74200
C499        C  0.45595663  0.16503793  0.87885759     0.98100
O500        O  0.44742342  0.24512334  0.83623663    -0.63000
O501        O  0.25061827  0.09735647  0.83058095    -0.57800
O502        O  0.39184491  0.18868545  0.82796399    -0.94500
O503        O  0.33082365  0.13578149  0.82390592    -0.92900
O504        O  0.27107299  0.20417791  0.83371797    -0.93300
O505        O  0.33834400  0.26900380  0.83915787    -0.92100
C506        C  0.36394006  0.16340175  0.81769606     1.17000
H507        H  0.24336142  0.13780395  0.86332178     0.32900
H508        H  0.38859837  0.26871460  0.87076633     0.43800
H509        H  0.37695658  0.12226304  0.85951596     0.37300
H510        H  0.33309184  0.15678490  0.92637787     0.33800
H511        H  0.29859427  0.28628703  0.86562019     0.25600
H512        H  0.41508312  0.25827576  0.94033449     0.31500
H513        H  0.41589368  0.13428672  0.92875206     0.37400
H514        H  0.25583781  0.21801902  0.83465330     0.31900
H515        H  0.24524221  0.07127748  0.82609996     0.30800
H516        H  0.28723975  0.04325392  0.83859603     0.32400
H517        H  0.38622330  0.07554993  0.88089825     0.31400
H518        H  0.36447448  0.27147096  0.83722042     0.35400
H519        H  0.44734749  0.27034678  0.83628843     0.28100
H520        H  0.21405930  0.09966165  0.92933845     0.32400
H521        H  0.35132415  0.06648242  0.92481243     0.35200
H522        H  0.22627351  0.09198487  0.83716876     0.27800
H523        H  0.47402980  0.25177940  0.84051325     0.40700
H524        H  0.37797548  0.30465496  0.89881401     0.30800
H525        H  0.30550564  0.27666890  0.88589632     0.38400
H526        H  0.34024176  0.05485653  0.88010742     0.30200
H527        H  0.39082699  0.21236370  0.94221592     0.30300
H528        H  0.25312421  0.10171504  0.93612080     0.30600
Zr529      Zr  0.11571034  0.83338289  0.09680759     2.17500
O530        O  0.12373708  0.87820514  0.07149354    -0.51800
O531        O  0.05075641  0.82178606  0.10413633    -0.75000
O532        O  0.08122915  0.79899450  0.06866145    -0.81800
O533        O  0.16521736  0.91404126  0.13333250    -0.83500
O534        O  0.08871864  0.74563323  0.06459726    -0.79200
O535        O  0.13501835  0.90060833  0.10515452    -0.90800
O536        O  0.02452255  0.77488918  0.12656078    -0.76800
O537        O  0.08255541  0.76439934  0.10228702    -0.86200
O538        O  0.10733048  0.82593820  0.12964101    -0.85900
O539        O  0.15811319  0.81146792  0.08413022    -0.72700
O540        O  0.18023478  0.86791077  0.11007851    -0.84800
Zr541      Zr  0.18087143  0.76697952  0.13638669     2.26400
Zr542      Zr  0.12541305  0.74222436  0.09086702     2.06300
Zr543      Zr  0.17193262  0.85805759  0.14280605     2.10000
Zr544      Zr  0.07364570  0.75682492  0.13483300     1.78800
O545        O  0.23788433  0.91322114  0.14817954    -0.93600
O546        O  0.01661284  0.69642519  0.12393718    -0.41400
O547        O  0.13791240  0.78863962  0.14850892    -0.78100
O548        O  0.11506347  0.73236708  0.12366857    -0.96800
O549        O  0.18994011  0.77599094  0.10375749    -0.90100
O550        O  0.21507481  0.83630020  0.13126052    -0.92900
C551        C  0.02312985  0.79967234  0.11535657     1.00900
C552        C  0.15183937  0.92329606  0.11908038     1.13800
C553        C  0.07588599  0.76856622  0.05956237     1.04600
O554        O  0.06889838  0.67803118  0.08395014    -0.95100
O555        O  0.13671755  0.68834452  0.09886186    -0.90800
O556        O  0.16070938  0.69986751  0.12825035    -0.83900
C557        C  0.14781120  0.67851623  0.11370192     1.11200
O558        O  0.23619006  0.90031552  0.07795482    -0.97000
Zr559      Zr  0.22194384  0.84514990  0.09837164     1.88900
O560        O  0.24917751  0.78582388  0.12952288    -0.73700
O561        O  0.16312025  0.73944844  0.06465623    -0.52900
O562        O  0.24551549  0.83681886  0.06841942    -0.97600
O563        O  0.27961994  0.90551663  0.10895543    -0.54800
O564        O  0.26949768  0.82483330  0.10391236    -0.74200
C565        C  0.27387923  0.80419949  0.11640976     0.98100
O566        O  0.19600338  0.72591109  0.15642859    -0.63000
O567        O  0.14593403  0.87666237  0.16918190    -0.57800
O568        O  0.18535389  0.78294525  0.16935976    -0.94500
O569        O  0.18562484  0.84048921  0.17301118    -0.92900
O570        O  0.05336076  0.77190261  0.16416045    -0.93300
O571        O  0.05357500  0.70423894  0.15762702    -0.92100
C572        C  0.18691948  0.81064247  0.17944065     1.17000
H573        H  0.09283967  0.83789392  0.13446344     0.32900
H574        H  0.10144246  0.70463259  0.12663079     0.43800
H575        H  0.24000249  0.84881841  0.13764840     0.37300
H576        H  0.16071821  0.81592527  0.07089212     0.33800
H577        H  0.99466330  0.69307383  0.13197642     0.25600
H578        H  0.14369833  0.71703906  0.05712166     0.31500
H579        H  0.27415048  0.85589566  0.06853291     0.37400
H580        H  0.07738807  0.79509837  0.16896864     0.31900
H581        H  0.16366079  0.90538265  0.17062036     0.30800
H582        H  0.23391580  0.93118360  0.15636919     0.32400
H583        H  0.29870263  0.91336634  0.09860003     0.31400
H584        H  0.07830750  0.70492717  0.16113905     0.35400
H585        H  0.21948204  0.74408995  0.16375928     0.28100
H586        H  0.09671069  0.87095323  0.06763475     0.32400
H587        H  0.21159579  0.89164707  0.07087161     0.35200
H588        H  0.12068238  0.87373198  0.16484638     0.27800
H589        H  0.17420804  0.71331498  0.16551574     0.40700
H590        H  0.04651113  0.67814279  0.09022648     0.30800
H591        H  0.01045696  0.70318835  0.11161749     0.38400
H592        H  0.29136950  0.89731988  0.11892081     0.30200
H593        H  0.16967497  0.76306287  0.05711431     0.30300
H594        H  0.13464728  0.87045836  0.06097828     0.30600
Zr595      Zr  0.88806610  0.72201397  0.90242379     2.17500
O596        O  0.88618407  0.76634218  0.92558118    -0.51800
O597        O  0.95539376  0.77227579  0.89558315    -0.75000
O598        O  0.91266402  0.71617521  0.93262191    -0.81800
O599        O  0.84204705  0.75720753  0.86640976    -0.83500
O600        O  0.90399056  0.65477790  0.93629872    -0.79200
O601        O  0.86983746  0.77115168  0.89510467    -0.90800
O602        O  0.97977222  0.75027724  0.87295535    -0.76800
O603        O  0.91884690  0.68373961  0.89716734    -0.86200
O604        O  0.89779843  0.72354725  0.86970263    -0.85900
O605        O  0.84260023  0.65790320  0.91445908    -0.72700
O606        O  0.82393000  0.69466884  0.88882606    -0.84800
Zr607      Zr  0.81873260  0.59205709  0.86170356     2.26400
Zr608      Zr  0.87270422  0.61883701  0.90805772     2.06300
Zr609      Zr  0.83375495  0.69461932  0.85607577     2.10000
Zr610      Zr  0.92811797  0.68480057  0.86454474     1.78800
O611        O  0.76920241  0.68529071  0.84830359    -0.93600
O612        O  0.98116220  0.67378454  0.87457173    -0.41400
O613        O  0.86467405  0.65648228  0.85054606    -0.78100
O614        O  0.88340545  0.61914346  0.87519279    -0.96800
O615        O  0.80885940  0.59056022  0.89432466    -0.90100
O616        O  0.78748396  0.62991652  0.86695193    -0.92900
C617        C  0.98272740  0.77658557  0.88441491     1.00900
C618        C  0.85437749  0.77843210  0.88107349     1.13800
C619        C  0.91578038  0.68996149  0.94198857     1.04600
O620        O  0.92973307  0.61210811  0.91510535    -0.95100
O621        O  0.85929482  0.55303587  0.90009028    -0.90800
O622        O  0.82627290  0.53787528  0.87269886    -0.83900
C623        C  0.84151429  0.52973655  0.88649399     1.11200
O624        O  0.75985642  0.66164209  0.92306947    -0.97000
Zr625      Zr  0.77943712  0.62979082  0.89981559     1.88900
O626        O  0.74887910  0.54509626  0.86603155    -0.73700
O627        O  0.83176182  0.57570360  0.93295331    -0.52900
O628        O  0.75807731  0.59511513  0.92938809    -0.97600
O629        O  0.72532911  0.63916601  0.88982310    -0.54800
O630        O  0.72949740  0.56391277  0.89182750    -0.74200
C631        C  0.72373889  0.53958632  0.87877393     0.98100
O632        O  0.81643804  0.54854342  0.83694893    -0.63000
O633        O  0.86224285  0.74313715  0.83117181    -0.57800
O634        O  0.81206571  0.60315545  0.82894970    -0.94500
O635        O  0.82459783  0.66588771  0.82538510    -0.92900
O636        O  0.94985003  0.72161423  0.83556485    -0.93300
O637        O  0.94652079  0.65332004  0.84054973    -0.92100
C638        C  0.81663601  0.63225261  0.81887737     1.17000
H639        H  0.91367274  0.75006948  0.86505511     0.32900
H640        H  0.89479435  0.60296963  0.87222384     0.43800
H641        H  0.76281887  0.61903653  0.86039210     0.37300
H642        H  0.83907705  0.65923789  0.92764322     0.33800
H643        H  0.00411778  0.69208525  0.86693528     0.25600
H644        H  0.84991439  0.57090067  0.94059420     0.31500
H645        H  0.73021129  0.57461454  0.92756126     0.37400
H646        H  0.92553682  0.71866628  0.82989462     0.31900
H647        H  0.84147869  0.74939719  0.82785884     0.30800
H648        H  0.77143318  0.71126936  0.85040511     0.32400
H649        H  0.71196860  0.61977798  0.87978613     0.31400
H650        H  0.92170388  0.63617938  0.83384183     0.35400
H651        H  0.84116192  0.54765880  0.83796736     0.28100
H652        H  0.91303289  0.78106602  0.93086753     0.32400
H653        H  0.78351155  0.68784794  0.92484346     0.35200
H654        H  0.88327763  0.76745029  0.83697944     0.27800
H655        H  0.79520072  0.52178531  0.84038854     0.40700
H656        H  0.94264972  0.61486351  0.90295726     0.30800
H657        H  0.98781955  0.68490217  0.88724073     0.38400
H658        H  0.73822588  0.66505169  0.88347703     0.30200
H659        H  0.82532102  0.59240457  0.94079310     0.30300
H660        H  0.86932451  0.74917833  0.93575245     0.30600
Zr661      Zr  0.72973734  0.86510153  0.09265367     2.17500
O662        O  0.76117451  0.84988089  0.06732242    -0.51800
O663        O  0.78523581  0.92966131  0.09847294    -0.75000
O664        O  0.73014902  0.89767066  0.06385089    -0.81800
O665        O  0.76054502  0.81687172  0.12942113    -0.83500
O666        O  0.66939084  0.89034592  0.05949973    -0.79200
O667        O  0.77711436  0.84518890  0.10077873    -0.90800
O668        O  0.76682966  0.95867090  0.12045973    -0.76800
O669        O  0.69633861  0.90095853  0.09744109    -0.86200
O670        O  0.73300960  0.87687370  0.12524373    -0.85900
O671        O  0.66449107  0.82379778  0.08098904    -0.72700
O672        O  0.69866756  0.80202190  0.10754822    -0.84800
Zr673      Zr  0.60152740  0.80699091  0.13439137     2.26400
Zr674      Zr  0.63023143  0.85892207  0.08718870     2.06300
Zr675      Zr  0.70029147  0.81395613  0.14017081     2.10000
Zr676      Zr  0.69951919  0.91269734  0.12978221     1.78800
O677        O  0.68692115  0.74805765  0.14837969    -0.93600
O678        O  0.69652132  0.96911158  0.11753152    -0.41400
O679        O  0.66701589  0.85018505  0.14509993    -0.78100
O680        O  0.63248866  0.87125430  0.11991337    -0.96800
O681        O  0.59869567  0.79568768  0.10184048    -0.90100
O682        O  0.63482076  0.77103572  0.12936406    -0.92900
C683        C  0.79211360  0.95823963  0.10929289     1.00900
C684        C  0.78246265  0.82839049  0.11487403     1.13800
C685        C  0.70503021  0.90227925  0.05438336     1.04600
O686        O  0.62723806  0.91852972  0.08129292    -0.95100
O687        O  0.56426745  0.84625400  0.09461163    -0.90800
O688        O  0.55011409  0.81824788  0.12326371    -0.83900
C689        C  0.54150968  0.83116952  0.10872986     1.11200
O690        O  0.66791981  0.74278904  0.07418801    -0.97000
Zr691      Zr  0.63334197  0.76141586  0.09648115     1.88900
O692        O  0.55390753  0.73635968  0.13238367    -0.73700
O693        O  0.58761021  0.82332447  0.06121140    -0.52900
O694        O  0.59660153  0.74415356  0.06745137    -0.97600
O695        O  0.63518378  0.70193161  0.10459050    -0.54800
O696        O  0.56785605  0.71397883  0.10606210    -0.74200
C697        C  0.54602520  0.70980672  0.12003191     0.98100
O698        O  0.55124261  0.80652125  0.15456646    -0.63000
O699        O  0.75037886  0.84164495  0.16432402    -0.57800
O700        O  0.61466587  0.80689518  0.16763343    -0.94500
O701        O  0.67305098  0.80882052  0.17128955    -0.92900
O702        O  0.73661961  0.93414807  0.15860164    -0.93300
O703        O  0.67250861  0.93856836  0.15258245    -0.92100
C704        C  0.64210294  0.80798393  0.17780420     1.17000
H705        H  0.75982004  0.89120950  0.12965176     0.32900
H706        H  0.61791320  0.88448920  0.12269132     0.43800
H707        H  0.62270465  0.74650960  0.13615861     0.37300
H708        H  0.66539496  0.81987176  0.06781654     0.33800
H709        H  0.71549336  0.99167281  0.12513451     0.25600
H710        H  0.58517718  0.84361494  0.05408363     0.31500
H711        H  0.57554252  0.71639996  0.06902086     0.37400
H712        H  0.73718914  0.91065119  0.16323271     0.31900
H713        H  0.76094502  0.82347261  0.16536501     0.30800
H714        H  0.66718405  0.73933602  0.15848241     0.32400
H715        H  0.61059517  0.67993099  0.09946200     0.31400
H716        H  0.64398461  0.91918371  0.15294273     0.35400
H717        H  0.54268196  0.78381720  0.16308274     0.28100
H718        H  0.78275531  0.87561608  0.06289589     0.32400
H719        H  0.64750424  0.71798539  0.06846254     0.35200
H720        H  0.77218891  0.86608539  0.15892689     0.27800
H721        H  0.56497273  0.83021551  0.16247455     0.40700
H722        H  0.63017777  0.93062820  0.09365600     0.30800
H723        H  0.70906558  0.97408358  0.10514381     0.38400
H724        H  0.63146797  0.69922114  0.11820183     0.30200
H725        H  0.60361937  0.81625210  0.05320444     0.30300
H726        H  0.74176952  0.83984259  0.05708802     0.30600
Zr727      Zr  0.85400457  0.10993190  0.90147748     2.17500
O728        O  0.89950264  0.12297592  0.92707857    -0.51800
O729        O  0.84352351  0.04500490  0.89464483    -0.75000
O730        O  0.81867309  0.07506929  0.92953246    -0.81800
O731        O  0.93506057  0.15689103  0.86492262    -0.83500
O732        O  0.76435387  0.08118144  0.93273809    -0.79200
O733        O  0.92029027  0.12639153  0.89308927    -0.90800
O734        O  0.80029240  0.01987068  0.87077363    -0.76800
O735        O  0.78560756  0.07519883  0.89471895    -0.86200
O736        O  0.84958801  0.10294970  0.86854460    -0.85900
O737        O  0.82941123  0.15053507  0.91354429    -0.72700
O738        O  0.88843053  0.17521006  0.88870595    -0.84800
Zr739      Zr  0.78881196  0.17359734  0.86023434     2.26400
Zr740      Zr  0.76084738  0.11628961  0.90561223     2.06300
Zr741      Zr  0.88175353  0.16796661  0.85574905     2.10000
Zr742      Zr  0.78112608  0.06788895  0.86201865     1.78800
O743        O  0.93696767  0.23498491  0.85345605    -0.93600
O744        O  0.71892228  0.01048960  0.87092507    -0.41400
O745        O  0.81313087  0.13251516  0.84877993    -0.78100
O746        O  0.75405693  0.10756988  0.87258315    -0.96800
O747        O  0.79410362  0.18139221  0.89301524    -0.90100
O748        O  0.85742707  0.20918606  0.86678109    -0.92900
C749        C  0.82378527  0.01818177  0.88266250     1.00900
C750        C  0.94317737  0.14240403  0.87910981     1.13800
C751        C  0.78747271  0.06890686  0.93827448     1.04600
O752        O  0.69841596  0.05547999  0.90950532    -0.95100
O753        O  0.70809745  0.12920003  0.89769420    -0.90800
O754        O  0.72372937  0.15918097  0.86956248    -0.83900
C755        C  0.70074631  0.14438945  0.88354675     1.11200
O756        O  0.91334556  0.23271104  0.92324800    -0.97000
Zr757      Zr  0.86250848  0.21495047  0.89981681     1.88900
O758        O  0.80599307  0.24157250  0.86595432    -0.73700
O759        O  0.74976944  0.14900649  0.93167917    -0.52900
O760        O  0.84795730  0.23471872  0.92942167    -0.97600
O761        O  0.92366150  0.27392923  0.89100012    -0.54800
O762        O  0.84085089  0.26111693  0.89280237    -0.74200
C763        C  0.82225701  0.26582490  0.87939188     0.98100
O764        O  0.74838973  0.17377917  0.83451517    -0.63000
O765        O  0.90592537  0.14943862  0.82864482    -0.57800
O766        O  0.81088611  0.18777236  0.82819645    -0.94500
O767        O  0.86537135  0.18208868  0.82518977    -0.92900
O768        O  0.80131544  0.04873623  0.83380028    -0.93300
O769        O  0.73321290  0.04869840  0.83704848    -0.92100
C770        C  0.83849044  0.18809029  0.81848917     1.17000
H771        H  0.86238259  0.08901679  0.86400605     0.32900
H772        H  0.72660412  0.09455781  0.86916150     0.43800
H773        H  0.86994418  0.23436934  0.86052687     0.37300
H774        H  0.83267910  0.15283388  0.92684670     0.33800
H775        H  0.71526953  0.98980713  0.86197288     0.25600
H776        H  0.72771572  0.12755453  0.93866738     0.31500
H777        H  0.81979043  0.22689564  0.92864816     0.37400
H778        H  0.81308916  0.07267065  0.82592674     0.31900
H779        H  0.93472394  0.16771017  0.82845193     0.30800
H780        H  0.94756098  0.23678763  0.84080064     0.32400
H781        H  0.92690075  0.29392367  0.90027853     0.31400
H782        H  0.72910753  0.07147906  0.83547121     0.35400
H783        H  0.72460827  0.14726964  0.83446589     0.28100
H784        H  0.89393717  0.09673880  0.93148178     0.32400
H785        H  0.92191536  0.21300199  0.92186520     0.35200
H786        H  0.90261914  0.12334328  0.83170904     0.27800
H787        H  0.73899194  0.19206590  0.83807549     0.40700
H788        H  0.70444671  0.03427975  0.90691106     0.30800
H789        H  0.72452494  0.00165739  0.88283164     0.38400
H790        H  0.91784650  0.28330396  0.87931991     0.30200
H791        H  0.77300906  0.15763214  0.93977250     0.30300
H792        H  0.89029605  0.13344341  0.93719999     0.30600
C793        C  0.74757361  0.02632036  0.98642112    -0.11800
C794        C  0.75630319  0.99581412  0.98736300     0.14700
C795        C  0.77563112  0.98975754  0.97230639     0.01600
C796        C  0.78554150  0.01413162  0.95663655    -0.16200
C797        C  0.77706543  0.04498672  0.95560821    -0.11000
C798        C  0.75798577  0.05110741  0.97089875     0.08300
C799        C  0.74457837  0.97084392  0.00423349     0.09400
S800        S  0.78794244  0.95116120  0.97208066    -0.25300
H801        H  0.79976301  0.00867337  0.94504859     0.19600
S802        S  0.74746240  0.09080124  0.97196746    -0.31000
H803        H  0.73296881  0.03118721  0.99803702     0.09900
C804        C  0.76769676  0.98331543  0.02043265     0.03100
C805        C  0.75464456  0.95972922  0.03643240    -0.13300
C806        C  0.71874279  0.92397213  0.03661220    -0.09000
C807        C  0.69652710  0.91078862  0.02007489     0.06600
C808        C  0.70941107  0.93455645  0.00416173    -0.14100
S809        S  0.81386384  0.02925102  0.02066429    -0.31000
H810        H  0.77197427  0.96960812  0.04901048     0.10800
S811        S  0.65248337  0.86339399  0.01817797    -0.28100
H812        H  0.69201995  0.92464664  0.99158924     0.08100
H813        H  0.78381760  0.11874413  0.96425085     0.26500
H814        H  0.82260390  0.02809224  0.03950145     0.21300
H815        H  0.66498167  0.84401577  0.03052096     0.26600
H816        H  0.79258941  0.94962729  0.99132977     0.15400
C817        C  0.86827802  0.95150489  0.88589028    -0.11800
C818        C  0.83597529  0.91509661  0.88110631     0.14700
C819        C  0.79967457  0.91254840  0.87680819     0.01600
C820        C  0.79649722  0.94651732  0.87752267    -0.16200
C821        C  0.82889127  0.98322431  0.88226738    -0.11000
C822        C  0.86542256  0.98558702  0.88625366     0.08300
C823        C  0.84118693  0.88037075  0.88104431     0.09400
S824        S  0.75629109  0.86698099  0.87050495    -0.25300
H825        H  0.76840125  0.94420899  0.87438649     0.19600
S826        S  0.91013347  0.03114773  0.89094207    -0.31000
H827        H  0.89621150  0.95344853  0.88905608     0.09900
C828        C  0.86124753  0.87388283  0.86649356     0.03100
C829        C  0.86532367  0.84039050  0.86693535    -0.13300
C830        C  0.85006776  0.81354286  0.88172048    -0.09000
C831        C  0.83029826  0.82036415  0.89638274     0.06600
C832        C  0.82626219  0.85381808  0.89591736    -0.14100
S833        S  0.88097161  0.90783943  0.84722011    -0.31000
H834        H  0.88055544  0.83505819  0.85577527     0.10800
S835        S  0.80832156  0.78695016  0.91566228    -0.28100
H836        H  0.81091142  0.85897492  0.90709533     0.08100
H837        H  0.90367797  0.05226593  0.87693803     0.26500
H838        H  0.89486610  0.88672778  0.83699122     0.21300
H839        H  0.79682793  0.75236423  0.90545175     0.26600
H840        H  0.77585255  0.84846559  0.86292252     0.15400
C841        C  0.80858079  0.34933449  0.89615958    -0.11800
C842        C  0.82436467  0.37568150  0.88126830     0.14700
C843        C  0.83718127  0.36472559  0.86519860     0.01600
C844        C  0.83453116  0.32781657  0.86455346    -0.16200
C845        C  0.81964527  0.30186170  0.87966412    -0.11000
C846        C  0.80589451  0.31251994  0.89550183     0.08300
C847        C  0.82820120  0.41479828  0.88326183     0.09400
S848        S  0.85859545  0.39688210  0.84542743    -0.25300
H849        H  0.84539270  0.31983067  0.85244988     0.19600
S850        S  0.78462022  0.28046847  0.91529165    -0.31000
H851        H  0.79856153  0.35769535  0.90844017     0.09900
C852        C  0.79540071  0.41998558  0.88127612     0.03100
C853        C  0.80056112  0.45786079  0.88279451    -0.13300
C854        C  0.83784207  0.49054127  0.88634211    -0.09000
C855        C  0.87058617  0.48509298  0.88845662     0.06600
C856        C  0.86531326  0.44719608  0.88712205    -0.14100
S857        S  0.74733239  0.37858580  0.87620736    -0.31000
H858        H  0.77556570  0.46220207  0.88104611     0.10800
S859        S  0.92001340  0.52536294  0.89165758    -0.28100
H860        H  0.89047218  0.44300197  0.88858997     0.08100
H861        H  0.76732427  0.24519791  0.90509264     0.26500
H862        H  0.72679311  0.39945813  0.87648572     0.21300
H863        H  0.91609957  0.55110947  0.87937739     0.26600
H864        H  0.84031869  0.41948718  0.84807240     0.15400
C865        C  0.94823510  0.68929628  0.99184754    -0.11800
C866        C  0.98168248  0.72688911  0.99293232     0.14700
C867        C  0.99185743  0.75275181  0.97766583     0.01600
C868        C  0.96902217  0.74011629  0.96156885    -0.16200
C869        C  0.93607719  0.70215981  0.96017526    -0.11000
C870        C  0.92504876  0.67687852  0.97579194     0.02300
C871        C  0.00568712  0.73799514  0.01002908     0.09400
S872        S  0.03408983  0.80179718  0.97760204    -0.25300
H873        H  0.97755407  0.75992513  0.94984988     0.19600
S874        S  0.88094458  0.62938919  0.97647986    -0.31000
H875        H  0.93998723  0.66961985  0.00367918     0.09900
C876        C  0.99375534  0.74931147  0.02619935     0.03100
C877        C  0.01770118  0.76015806  0.04204661    -0.13300
C878        C  0.05295415  0.75904420  0.04215972    -0.09000
C879        C  0.06473100  0.74765690  0.02584907     0.06600
C880        C  0.04100673  0.73724809  0.01002128    -0.14100
S881        S  0.94808264  0.75001907  0.02656699    -0.31000
H882        H  0.00856216  0.76873114  0.05452943     0.10800
S883        S  0.11026614  0.74709513  0.02411587    -0.28100
H884        H  0.05025614  0.72875128  0.99753289     0.08100
H885        H  0.85837105  0.64151715  0.96620615     0.26500
H886        H  0.94980470  0.76065115  0.04531188     0.21300
H887        H  0.13214393  0.78155165  0.03461275     0.26600
H888        H  0.03438257  0.80852165  0.99674993     0.15400
C889        C  0.85895300  0.80195801  0.09934953    -0.11800
C890        C  0.88269804  0.81202582  0.11519298     0.14700
C891        C  0.87322112  0.82721350  0.13085129     0.01600
C892        C  0.84033884  0.83211545  0.13032979    -0.16200
C893        C  0.81641244  0.82199397  0.11451876    -0.11000
C894        C  0.82572027  0.80637386  0.09889188     0.08300
C895        C  0.91816479  0.80807426  0.11476414     0.09400
S896        S  0.90221158  0.84133253  0.15178631    -0.25300
H897        H  0.83351547  0.84423017  0.14233946     0.19600
S898        S  0.79586764  0.79024911  0.07824608    -0.31000
H899        H  0.86625919  0.79032328  0.08731383     0.09900
C900        C  0.91574701  0.77111691  0.11637805     0.03100
C901        C  0.95047484  0.76915029  0.11677419    -0.13300
C902        C  0.98751033  0.80343216  0.11545239    -0.09000
C903        C  0.98961549  0.84047623  0.11387116     0.06600
C904        C  0.95497847  0.84225737  0.11333813    -0.14100
S905        S  0.86851893  0.72665978  0.11838902    -0.31000
H906        H  0.94882567  0.74082778  0.11795097     0.10800
S907        S  0.03533367  0.88676251  0.11345706    -0.28100
H908        H  0.95669492  0.87065741  0.11226276     0.08100
H909        H  0.75967369  0.77559068  0.08755702     0.26500
H910        H  0.88283719  0.70016134  0.11849897     0.21300
H911        H  0.05433204  0.87502982  0.12636102     0.26600
H912        H  0.91296495  0.81214927  0.15075297     0.15400
C913        C  0.36083257  0.79862160  0.09746174    -0.11800
C914        C  0.38558909  0.81034539  0.11295700     0.14700
C915        C  0.37211240  0.81690660  0.13003606     0.01600
C916        C  0.33433399  0.81207616  0.13115549    -0.16200
C917        C  0.31018554  0.80196828  0.11544987    -0.11000
C918        C  0.32320317  0.79401956  0.09855094     0.08300
C919        C  0.42496316  0.81467001  0.11093785     0.09400
S920        S  0.40190832  0.83248929  0.15073638    -0.25300
H921        H  0.32451996  0.81824629  0.14412679     0.19600
S922        S  0.29297693  0.77725281  0.07799797    -0.31000
H923        H  0.37085593  0.79280140  0.08446071     0.09900
C924        C  0.43264821  0.78530216  0.11734045     0.03100
C925        C  0.47084430  0.79140519  0.11599150    -0.13300
C926        C  0.50175162  0.82646768  0.10852281    -0.09000
C927        C  0.49378727  0.85572428  0.10194651     0.06600
C928        C  0.45530707  0.84916987  0.10289618    -0.14100
S929        S  0.39387862  0.74014827  0.12730858    -0.31000
H930        H  0.47680004  0.76880210  0.12093617     0.10800
S931        S  0.53171044  0.90298156  0.09365834    -0.28100
H932        H  0.44925944  0.87181433  0.09808383     0.08100
H933        H  0.25672863  0.75746212  0.08742293     0.26500
H934        H  0.41646077  0.72179603  0.13008396     0.21300
H935        H  0.55890924  0.90745349  0.10751081     0.26600
H936        H  0.43865719  0.85249484  0.14182422     0.15400
C937        C  0.57186717  0.35952793  0.87947447    -0.11800
C938        C  0.57461242  0.39560215  0.88379566     0.14700
C939        C  0.54078160  0.39653482  0.88973125     0.01600
C940        C  0.50481884  0.36132637  0.89110414    -0.16200
C941        C  0.50175319  0.32526454  0.88627141    -0.11000
C942        C  0.53581467  0.32429031  0.88066441     0.08300
C943        C  0.61344864  0.43165399  0.88246044     0.09400
S944        S  0.54159854  0.44160354  0.89572017    -0.25300
H945        H  0.47877481  0.36223778  0.89534193     0.19600
S946        S  0.53401770  0.27816533  0.87580599    -0.31000
H947        H  0.59817842  0.35910885  0.87530614     0.09900
C948        C  0.63635410  0.44893639  0.89836814     0.03100
C949        C  0.67240077  0.48388187  0.89658141    -0.13300
C950        C  0.68586639  0.50226622  0.87923632    -0.09000
C951        C  0.66262629  0.48492947  0.86330728     0.06600
C952        C  0.62703317  0.44937820  0.86504828    -0.14100
S953        S  0.61967556  0.42650556  0.92093112    -0.31000
H954        H  0.69030631  0.49702958  0.90878361     0.10800
S955        S  0.67528847  0.50785393  0.84073511    -0.28100
H956        H  0.60901506  0.43618199  0.85286904     0.08100
H957        H  0.57342037  0.29422409  0.87014825     0.26500
H958        H  0.65078500  0.45624761  0.93121382     0.21300
H959        H  0.69182787  0.54667270  0.84733858     0.26600
H960        H  0.57198829  0.46629981  0.88351813     0.15400
C961        C  0.06692135  0.87724371  0.89800311    -0.11800
C962        C  0.08161697  0.89369016  0.88051415     0.14700
C963        C  0.06523308  0.87067204  0.86446818     0.01600
C964        C  0.03453253  0.83177372  0.86628136    -0.16200
C965        C  0.01899445  0.81550324  0.88376912    -0.11000
C966        C  0.03602400  0.83848360  0.89981735     0.08300
C967        C  0.11550559  0.93415848  0.87965592     0.09400
S968        S  0.08122366  0.88948194  0.84131577    -0.25300
H969        H  0.02144665  0.81467467  0.85384558     0.19600
S970        S  0.02075077  0.81983156  0.92298414    -0.31000
H971        H  0.08003207  0.89465740  0.91035671     0.09900
C972        C  0.11113117  0.96716408  0.88298734     0.03100
C973        C  0.14453298  0.00495586  0.88293039    -0.13300
C974        C  0.18212332  0.01023630  0.87949817    -0.09000
C975        C  0.18630993  0.97685109  0.87649765     0.06600
C976        C  0.15295906  0.93933792  0.87636092    -0.14100
S977        S  0.06286012  0.96110461  0.88666221    -0.31000
H978        H  0.14134584  0.03052025  0.88518750     0.10800
S979        S  0.23344912  0.97981107  0.87375149    -0.28100
H980        H  0.15629005  0.91381742  0.87415760     0.08100
H981        H  0.01164115  0.78115814  0.91875112     0.26500
H982        H  0.07544505  0.00106081  0.88979132     0.21300
H983        H  0.25388501  0.01159766  0.88598952     0.26600
H984        H  0.09385364  0.92908340  0.84537183     0.15400
C985        C  0.59490128  0.12149435  0.89027844    -0.11800
C986        C  0.59614344  0.15354472  0.88101018     0.14700
C987        C  0.63156640  0.18241356  0.87284830     0.01600
C988        C  0.66486301  0.17836011  0.87389900    -0.16200
C989        C  0.66393905  0.14618517  0.88307672    -0.11000
C990        C  0.62818145  0.11717098  0.89118877     0.08300
C991        C  0.56010292  0.15626073  0.88007723     0.09400
S992        S  0.63613120  0.22487821  0.86075106    -0.25300
H993        H  0.69198309  0.20099000  0.86766660     0.19600
S994        S  0.62224175  0.07296676  0.90188769    -0.31000
H995        H  0.56750148  0.09918412  0.89643078     0.09900
C996        C  0.53704062  0.14626836  0.86387002     0.03100
C997        C  0.50397956  0.15112187  0.86343918    -0.13300
C998        C  0.49343781  0.16517342  0.87902538    -0.09000
C999        C  0.51703394  0.17561584  0.89515541     0.06600
C1000       C  0.54979095  0.17058951  0.89556502    -0.14100
S1001       S  0.54914364  0.12634920  0.84400597    -0.31000
H1002       H  0.48560231  0.14284248  0.85118723     0.10800
S1003       S  0.50764343  0.19649210  0.91548782    -0.28100
H1004       H  0.56794115  0.17870970  0.90791037     0.08100
H1005       H  0.64412415  0.06652304  0.88827880     0.26500
H1006       H  0.51516900  0.11695632  0.83366130     0.21300
H1007       H  0.49025973  0.21535233  0.90605694     0.26600
H1008       H  0.60836105  0.22899224  0.87136703     0.15400
C1009       C  0.03950457  0.14820751  0.86557327    -0.11800
C1010       C  0.05986291  0.16000701  0.88241127     0.14700
C1011       C  0.04126170  0.16425774  0.89824683     0.01600
C1012       C  0.00273148  0.15703601  0.89683216    -0.16200
C1013       C  0.98236323  0.14592037  0.87989927    -0.11000
C1014       C  0.00078656  0.14052081  0.86419812     0.08300
C1015       C  0.09952616  0.16509498  0.88326670     0.09400
S1016       S  0.06468265  0.17802757  0.92068128    -0.25300
H1017       H  0.98887527  0.16109965  0.90898364     0.19600
S1018       S  0.97602501  0.12166005  0.84241341    -0.31000
H1019       H  0.05355391  0.14388118  0.85356456     0.09900
C1020       C  0.10522187  0.13409560  0.88905436     0.03100
C1021       C  0.14332735  0.13978989  0.88934406    -0.13300
C1022       C  0.17605120  0.17614306  0.88419584    -0.09000
C1023       C  0.17007842  0.20766588  0.87912959     0.06600
C1024       C  0.13181357  0.20147957  0.87829860    -0.14100
S1025       S  0.06382744  0.08709247  0.89573122    -0.31000
H1026       H  0.14746767  0.11542830  0.89324103     0.10800
S1027       S  0.20974920  0.25683794  0.87458891    -0.28100
H1028       H  0.12716807  0.22547575  0.87423398     0.08100
H1029       H  0.93901907  0.09642701  0.85037340     0.26500
H1030       H  0.08565993  0.06894968  0.90072382     0.21300
H1031       H  0.23329258  0.25634153  0.88919371     0.26600
H1032       H  0.10363835  0.19997504  0.91428235     0.15400
C1033       C  0.90328228  0.02311549  0.10821559    -0.11800
C1034       C  0.90724512  0.06053002  0.10967391     0.14700
C1035       C  0.87331949  0.06424687  0.11068416     0.01600
C1036       C  0.83617776  0.03039404  0.11033565    -0.16200
C1037       C  0.83207275  0.99279506  0.10918385    -0.11000
C1038       C  0.86621108  0.98920604  0.10821417     0.08300
C1039       C  0.94721956  0.09495680  0.11058014     0.09400
S1040       S  0.87525254  0.11109279  0.11244458    -0.25300
H1041       H  0.81021385  0.03342429  0.11103440     0.19600
S1042       S  0.86488619  0.94251978  0.10790954    -0.31000
H1043       H  0.92939350  0.02032875  0.10757512     0.09900
C1044       C  0.96956851  0.10395049  0.12697250     0.03100
C1045       C  0.00708798  0.13746476  0.12748662    -0.13300
C1046       C  0.02272018  0.16202923  0.11189744    -0.09000
C1047       C  0.99996219  0.15302087  0.09552772     0.06600
C1048       C  0.96266936  0.11932595  0.09498667    -0.14100
S1049       S  0.94992970  0.07313391  0.14732157    -0.31000
H1050       H  0.02448654  0.14451189  0.14003212     0.10800
S1051       S  0.01571666  0.18428704  0.07527335    -0.28100
H1052       H  0.94514355  0.11249091  0.08247620     0.08100
H1053       H  0.83379455  0.92397537  0.12071397     0.26500
H1054       H  0.98156245  0.09640483  0.15920761     0.21300
H1055       H  0.03534878  0.21997782  0.08509186     0.26600
H1056       H  0.91152989  0.13127850  0.12169241     0.15400
C1057       C  0.37024075  0.55358561  0.12332699    -0.11800
C1058       C  0.40669160  0.55650519  0.11995817     0.14700
C1059       C  0.40812461  0.52306706  0.11376125     0.01600
C1060       C  0.37295171  0.48750802  0.11099269    -0.16200
C1061       C  0.33633212  0.48451643  0.11441643    -0.11000
C1062       C  0.33518879  0.51829346  0.12043234     0.08300
C1063       C  0.44189727  0.59612620  0.12038744     0.09400
S1064       S  0.45365164  0.52409384  0.10865997    -0.25300
H1065       H  0.37420172  0.46178137  0.10652039     0.19600
S1066       S  0.29014830  0.51920946  0.12373825    -0.31000
H1067       H  0.36909196  0.57954110  0.12751017     0.09900
C1068       C  0.45409252  0.61938983  0.10423686     0.03100
C1069       C  0.48747133  0.65683650  0.10484041    -0.13300
C1070       C  0.50917093  0.67164823  0.12126437    -0.09000
C1071       C  0.49652913  0.64850610  0.13757926     0.06600
C1072       C  0.46258358  0.61115854  0.13703796    -0.14100
S1073       S  0.42692977  0.60137604  0.08283489    -0.31000
H1074       H  0.49697697  0.67471612  0.09237941     0.10800
S1075       S  0.52347744  0.66394522  0.15906937    -0.28100
H1076       H  0.45290020  0.59321990  0.14948594     0.08100
H1077       H  0.26863376  0.49138560  0.10992583     0.26500
H1078       H  0.45318660  0.63299892  0.07155069     0.21300
H1079       H  0.56095685  0.68152829  0.15076927     0.26600
H1080       H  0.47764528  0.55521313  0.12059830     0.15400
C1081       C  0.13807594  0.58319133  0.13119966    -0.11800
C1082       C  0.15527670  0.57374112  0.11657166     0.14700
C1083       C  0.16760100  0.59736530  0.10043667     0.01600
C1084       C  0.16281479  0.63033001  0.09939764    -0.16200
C1085       C  0.14650191  0.64042728  0.11424839    -0.11000
C1086       C  0.13323144  0.61601999  0.13016161     0.08300
C1087       C  0.15694530  0.53725182  0.11805434     0.09400
S1088       S  0.18966699  0.58722337  0.08079381    -0.25300
H1089       H  0.17330361  0.64908418  0.08722084     0.19600
S1090       S  0.10867624  0.62437651  0.14929081    -0.31000
H1091       H  0.12771197  0.56439462  0.14336912     0.09900
C1092       C  0.18821961  0.53627787  0.12703626     0.03100
C1093       C  0.18849551  0.50073303  0.12789287    -0.13300
C1094       C  0.15823987  0.46622326  0.11978660    -0.09000
C1095       C  0.12551322  0.46705861  0.11184902     0.06600
C1096       C  0.12564795  0.50273895  0.11089432    -0.14100
S1097       S  0.22848583  0.58066552  0.13665606    -0.31000
H1098       H  0.21295217  0.50014900  0.13443231     0.10800
S1099       S  0.08253532  0.42310549  0.10348362    -0.28100
H1100       H  0.10129459  0.50397555  0.10451749     0.08100
H1101       H  0.08893450  0.63854644  0.13818732     0.26500
H1102       H  0.24742389  0.56257561  0.14540451     0.21300
H1103       H  0.05849399  0.43979851  0.10057452     0.26600
H1104       H  0.20523053  0.56701752  0.09049438     0.15400
C1105       C  0.15904667  0.02072330  0.13205666    -0.11800
C1106       C  0.17331281  0.04183305  0.11544824     0.14700
C1107       C  0.18000302  0.02371991  0.10008241     0.01600
C1108       C  0.17165383  0.98471922  0.10156500    -0.16200
C1109       C  0.15753261  0.96347367  0.11820481    -0.11000
C1110       C  0.15083938  0.98174369  0.13357893     0.08300
C1111       C  0.17810996  0.08158254  0.11418617     0.09400
S1112       S  0.19844903  0.04842644  0.07813456    -0.25300
H1113       H  0.17709817  0.97110700  0.08972052     0.19600
S1114       S  0.13001318  0.95653605  0.15514898    -0.31000
H1115       H  0.15324878  0.03441159  0.14375876     0.09900
C1116       C  0.14745876  0.08702127  0.10754874     0.03100
C1117       C  0.15269227  0.12504588  0.10691104    -0.13300
C1118       C  0.18833962  0.15808566  0.11245803    -0.09000
C1119       C  0.21967467  0.15244326  0.11825396     0.06600
C1120       C  0.21381920  0.11424802  0.11956989    -0.14100
S1121       S  0.10155999  0.04541403  0.10000415    -0.31000
H1122       H  0.12858126  0.12891168  0.10230059     0.10800
S1123       S  0.26846524  0.19256065  0.12289587    -0.28100
H1124       H  0.23769344  0.10999048  0.12423404     0.08100
H1125       H  0.10562656  0.91956179  0.14707717     0.26500
H1126       H  0.08172729  0.06631994  0.09648953     0.21300
H1127       H  0.26837676  0.21544783  0.10784496     0.26600
H1128       H  0.21995223  0.08686365  0.08515573     0.15400
C1129       C  0.24477124  0.22517602  0.02243651    -0.11800
C1130       C  0.25229876  0.24869404  0.00659111     0.14700
C1131       C  0.25106602  0.28398377  0.00785213     0.01600
C1132       C  0.24192545  0.29475043  0.02484083    -0.16200
C1133       C  0.23440598  0.27129510  0.04073996    -0.11000
C1134       C  0.23640018  0.23631057  0.03952271     0.08300
C1135       C  0.26307100  0.23657488  0.98915542     0.09400
S1136       S  0.26041361  0.31626244  0.98828142    -0.25300
H1137       H  0.24034709  0.32153006  0.02562575     0.19600
S1138       S  0.23038194  0.20557222  0.05935012    -0.31000
H1139       H  0.24635452  0.19840928  0.02155710     0.09900
C1140       C  0.30186172  0.24472926  0.98609610     0.03100
C1141       C  0.31160141  0.23414197  0.96920338    -0.13300
C1142       C  0.28339589  0.21566743  0.95514985    -0.09000
C1143       C  0.24450672  0.20810592  0.95820625     0.06600
C1144       C  0.23468001  0.21804822  0.97527022    -0.14100
S1145       S  0.33925710  0.26972692  0.00355182    -0.31000
H1146       H  0.34141351  0.24021952  0.96694659     0.10800
S1147       S  0.20685700  0.18848076  0.94059431    -0.28100
H1148       H  0.20498721  0.21239059  0.97755824     0.08100
H1149       H  0.24698294  0.23643303  0.07232119     0.26500
H1150       H  0.37001341  0.26865524  0.99403689     0.21300
H1151       H  0.23233203  0.21062679  0.92603968     0.26600
H1152       H  0.28823908  0.30911648  0.97953838     0.15400
C1153       C  0.86713318  0.20587580  0.76736845    -0.11800
C1154       C  0.82993563  0.18883986  0.75897298     0.14700
C1155       C  0.79616007  0.17514427  0.77023992     0.01600
C1156       C  0.80007631  0.17668742  0.78954273    -0.16200
C1157       C  0.83719840  0.19262830  0.79806896    -0.11000
C1158       C  0.87120774  0.20884741  0.78669046     0.08300
C1159       C  0.82708282  0.18420302  0.73853740     0.09400
S1160       S  0.74722032  0.15488340  0.76082382    -0.25300
H1161       H  0.77363982  0.16432584  0.79795358     0.19600
S1162       S  0.92054388  0.23465119  0.79582065    -0.31000
H1163       H  0.89323975  0.21698938  0.75877202     0.09900
C1164       C  0.84343329  0.21708938  0.72658506     0.03100
C1165       C  0.84032677  0.21119660  0.70737963    -0.13300
C1166       C  0.82098761  0.17311696  0.69975987    -0.09000
C1167       C  0.80367712  0.14022010  0.71177128     0.06600
C1168       C  0.80739659  0.14610735  0.73098213    -0.14100
S1169       S  0.86798401  0.26664430  0.73567348    -0.31000
H1170       H  0.85400793  0.23649146  0.69821801     0.10800
S1171       S  0.77545589  0.09029529  0.70352538    -0.28100
H1172       H  0.79445789  0.12078205  0.74016017     0.08100
H1173       H  0.91113556  0.25125017  0.81087676     0.26500
H1174       H  0.87207230  0.28603238  0.71867256     0.21300
H1175       H  0.75958426  0.09958775  0.68811545     0.26600
H1176       H  0.75862908  0.17883461  0.74487733     0.15400
C1177       C  0.00243958  0.23887411  0.51872680    -0.11800
C1178       C  0.98981168  0.25575367  0.50517231     0.14700
C1179       C  0.95882336  0.26298771  0.50934237     0.01600
C1180       C  0.94150747  0.25350155  0.52698709    -0.16200
C1181       C  0.95394294  0.23637524  0.54062581    -0.11000
C1182       C  0.98535877  0.22966861  0.53641462     0.08300
C1183       C  0.01079660  0.26684113  0.48715579     0.09400
S1184       S  0.94003873  0.28435822  0.49292119    -0.25300
H1185       H  0.91749430  0.25885055  0.52995571     0.19600
S1186       S  0.00671155  0.21174478  0.55320678    -0.31000
H1187       H  0.02664434  0.23388548  0.51564827     0.09900
C1188       C  0.04093528  0.30567611  0.48352829     0.03100
C1189       C  0.06103460  0.31458651  0.46650212    -0.13300
C1190       C  0.05167130  0.28538956  0.45296705    -0.09000
C1191       C  0.02040112  0.24667750  0.45651484     0.06600
C1192       C  0.00091732  0.23775814  0.47364504    -0.14100
S1193       S  0.05442080  0.34360209  0.50080652    -0.31000
H1194       H  0.08479432  0.34425722  0.46389399     0.10800
S1195       S  0.00264516  0.20772100  0.43957456    -0.28100
H1196       H  0.97734570  0.20800676  0.47637236     0.08100
H1197       H  0.00372487  0.23311785  0.56817059     0.26500
H1198       H  0.08608954  0.37387162  0.49094837     0.21300
H1199       H  0.00802210  0.23237544  0.42433427     0.26600
H1200       H  0.95192149  0.27349921  0.47667063     0.15400
C1201       C  0.20681832  0.32954316  0.26557097    -0.11800
C1202       C  0.19275790  0.35223971  0.25697551     0.14700
C1203       C  0.18275677  0.37558132  0.26801153     0.01600
C1204       C  0.18533691  0.37442014  0.28732740    -0.16200
C1205       C  0.19818951  0.35076607  0.29614650    -0.11000
C1206       C  0.21016450  0.32894741  0.28493997     0.08300
C1207       C  0.18687613  0.34950317  0.23660584     0.09400
S1208       S  0.16527351  0.40651100  0.25833182    -0.25300
H1209       H  0.17599502  0.39138691  0.29554334     0.19600
S1210       S  0.23072059  0.30053372  0.29433297    -0.31000
H1211       H  0.21505332  0.31198568  0.25710288     0.09900
C1212       C  0.21886047  0.36772809  0.22423579     0.03100
C1213       C  0.21177116  0.36458084  0.20508371    -0.13300
C1214       C  0.17327096  0.34349389  0.19791240    -0.09000
C1215       C  0.14122555  0.32584496  0.21044760     0.06600
C1216       C  0.14842496  0.32878233  0.22958092    -0.14100
S1217       S  0.26865886  0.39567903  0.23282863    -0.31000
H1218       H  0.23651804  0.37813110  0.19562216     0.10800
S1219       S  0.09056427  0.30049470  0.20306893    -0.28100
H1220       H  0.12379388  0.31520355  0.23913038     0.08100
H1221       H  0.25122593  0.32716156  0.30873509     0.26500
H1222       H  0.28761032  0.40352208  0.21548269     0.21300
H1223       H  0.09647887  0.32631707  0.18825646     0.26600
H1224       H  0.18630591  0.41487118  0.24156731     0.15400
C1225       C  0.35741401  0.20418697  0.72995376    -0.11800
C1226       C  0.37966434  0.18955798  0.73844750     0.14700
C1227       C  0.40301024  0.17961745  0.72735756     0.01600
C1228       C  0.40111364  0.18139843  0.70803841    -0.16200
C1229       C  0.37727913  0.19415274  0.69936018    -0.11000
C1230       C  0.35683764  0.20766133  0.71063986     0.08300
C1231       C  0.37654220  0.18320322  0.75877519     0.09400
S1232       S  0.43524007  0.16376761  0.73702357    -0.25300
H1233       H  0.41758492  0.17153917  0.69976101     0.19600
S1234       S  0.33023016  0.23038029  0.70143646    -0.31000
H1235       H  0.34025615  0.21286784  0.73846395     0.09900
C1236       C  0.39169442  0.21501325  0.77124578     0.03100
C1237       C  0.38815455  0.20750531  0.79036844    -0.13300
C1238       C  0.36952748  0.16877749  0.79736747    -0.09000
C1239       C  0.35476823  0.13695808  0.78477127     0.06600
C1240       C  0.35815278  0.14451974  0.76566707    -0.14100
S1241       S  0.41620271  0.26518357  0.76282954    -0.31000
H1242       H  0.39925599  0.23198598  0.79994522     0.10800
S1243       S  0.33248349  0.08628151  0.79210286    -0.28100
H1244       H  0.34668373  0.12005002  0.75604954     0.08100
H1245       H  0.35684418  0.24968889  0.68680151     0.26500
H1246       H  0.42181516  0.28345534  0.78021629     0.21300
H1247       H  0.35697827  0.09398103  0.80763191     0.26600
H1248       H  0.44336467  0.18535112  0.75358618     0.15400
C1249       C  0.54702655  0.12804722  0.63395020    -0.11800
C1250       C  0.57311931  0.14258796  0.61891716     0.14700
C1251       C  0.56065149  0.15134092  0.60207767     0.01600
C1252       C  0.52342900  0.14794707  0.60108370    -0.16200
C1253       C  0.49798691  0.13520907  0.61644157    -0.11000
C1254       C  0.50953922  0.12381257  0.63284360     0.08300
C1255       C  0.61326916  0.14887294  0.62143594     0.09400
S1256       S  0.59109943  0.16779776  0.58156283    -0.25300
H1257       H  0.51471540  0.15637112  0.58839265     0.19600
S1258       S  0.47775038  0.10308011  0.65274017    -0.31000
H1259       H  0.55611705  0.12026698  0.64671724     0.09900
C1260       C  0.64623270  0.18695652  0.62328434     0.03100
C1261       C  0.68389616  0.19143860  0.62512470    -0.13300
C1262       C  0.68910889  0.15853661  0.62517560    -0.09000
C1263       C  0.65565348  0.12034505  0.62440693     0.06600
C1264       C  0.61824569  0.11597013  0.62241074    -0.14100
S1265       S  0.64033854  0.22978710  0.62311171    -0.31000
H1266       H  0.70950350  0.22065911  0.62570515     0.10800
S1267       S  0.65862896  0.07601289  0.62611035    -0.28100
H1268       H  0.59277640  0.08667053  0.62148070     0.08100
H1269       H  0.44256135  0.08403478  0.64253362     0.26500
H1270       H  0.68032736  0.25787793  0.62550626     0.21300
H1271       H  0.69252762  0.09242834  0.63728546     0.26600
H1272       H  0.61235094  0.14849153  0.58539246     0.15400
C1273       C  0.08053076  0.18712977  0.63185887    -0.11800
C1274       C  0.09368077  0.17882856  0.61529148     0.14700
C1275       C  0.07324268  0.17565454  0.59867919     0.01600
C1276       C  0.04012135  0.18036437  0.59904103    -0.16200
C1277       C  0.02683468  0.18880565  0.61560431    -0.11000
C1278       C  0.04724004  0.19154359  0.63227125     0.08300
C1279       C  0.12685764  0.17074267  0.61605418     0.09400
S1280       S  0.08803100  0.16581239  0.57655613    -0.25300
H1281       H  0.02469586  0.17757674  0.58618878     0.19600
S1282       S  0.03045437  0.19679247  0.65477870    -0.31000
H1283       H  0.09541782  0.18854024  0.64474386     0.09900
C1284       C  0.16501679  0.19995319  0.62137525     0.03100
C1285       C  0.19515260  0.19065731  0.62227721    -0.13300
C1286       C  0.18828988  0.15284437  0.61779924    -0.09000
C1287       C  0.14990080  0.12353326  0.61262230     0.06600
C1288       C  0.11977617  0.13282368  0.61175678    -0.14100
S1289       S  0.17588185  0.24956400  0.62629366    -0.31000
H1290       H  0.22455856  0.21328525  0.62612259     0.10800
S1291       S  0.13695614  0.07348258  0.60769285    -0.28100
H1292       H  0.09033816  0.11012035  0.60794796     0.08100
H1293       H  0.99063537  0.16942286  0.65124488     0.26500
H1294       H  0.21632867  0.26557992  0.62977456     0.21300
H1295       H  0.16142715  0.07146346  0.62139332     0.26600
H1296       H  0.12854552  0.18502251  0.58048344     0.15400
C1297       C  0.28344674  0.98326899  0.47989506    -0.11800
C1298       C  0.25428009  0.97337962  0.49340769     0.14700
C1299       C  0.21511518  0.94420098  0.48948126     0.01600
C1300       C  0.20607532  0.92554039  0.47215672    -0.16200
C1301       C  0.23539969  0.93507936  0.45865581    -0.11000
C1302       C  0.27441967  0.96494811  0.46254609     0.08300
C1303       C  0.26536883  0.99611944  0.51088745     0.09400
S1304       S  0.17549820  0.92950854  0.50594959    -0.25300
H1305       H  0.17602678  0.90284676  0.46932634     0.19600
S1306       S  0.31354615  0.98296385  0.44563675    -0.31000
H1307       H  0.31332902  0.00637787  0.48271286     0.09900
C1308       C  0.28757865  0.99042694  0.52461202     0.03100
C1309       C  0.29840346  0.01354206  0.54071251    -0.13300
C1310       C  0.28831124  0.04299894  0.54321776    -0.09000
C1311       C  0.26729337  0.04949538  0.52900274     0.06600
C1312       C  0.25537522  0.02549025  0.51324897    -0.14100
S1313       S  0.30175059  0.95344545  0.52169398    -0.31000
H1314       H  0.31464681  0.00849689  0.55146960     0.10800
S1315       S  0.25736257  0.08962081  0.52932152    -0.28100
H1316       H  0.23935754  0.03064507  0.50239259     0.08100
H1317       H  0.28957893  0.97906982  0.43034360     0.26500
H1318       H  0.32486105  0.96251127  0.53781616     0.21300
H1319       H  0.29351532  0.11662986  0.53748455     0.26600
H1320       H  0.19863452  0.93822201  0.52202528     0.15400
C1321       C  0.20776632  0.07541319  0.38985011    -0.11800
C1322       C  0.16940468  0.06911883  0.39145028     0.14700
C1323       C  0.13763667  0.03030416  0.39347797     0.01600
C1324       C  0.14477231  0.99868553  0.39317704    -0.16200
C1325       C  0.18308415  0.00475739  0.39112491    -0.11000
C1326       C  0.21498121  0.04382075  0.38989630     0.08300
C1327       C  0.16324576  0.10333440  0.38982486     0.09400
S1328       S  0.08724878  0.01900064  0.39604769    -0.25300
H1329       H  0.12000740  0.96895745  0.39420032     0.19600
S1330       S  0.26553095  0.05537604  0.38896176    -0.31000
H1331       H  0.23227412  0.10521268  0.38851944     0.09900
C1332       C  0.16936767  0.12850024  0.40492947     0.03100
C1333       C  0.16340870  0.16073852  0.40259963    -0.13300
C1334       C  0.15136344  0.16829418  0.38543669    -0.09000
C1335       C  0.14362949  0.14184175  0.37060238     0.06600
C1336       C  0.15029268  0.11019069  0.37285883    -0.14100
S1337       S  0.18426170  0.11916344  0.42718217    -0.31000
H1338       H  0.16894925  0.18063070  0.41407072     0.10800
S1339       S  0.12311014  0.14541401  0.34883179    -0.28100
H1340       H  0.14466654  0.09025334  0.36137897     0.08100
H1341       H  0.26016864  0.02532408  0.40135992     0.26500
H1342       H  0.18457625  0.15063494  0.43667004     0.21300
H1343       H  0.09944051  0.15931025  0.35661634     0.26600
H1344       H  0.09529970  0.05517113  0.40373135     0.15400
C1345       C  0.21045617  0.64182917  0.38914197    -0.11800
C1346       C  0.19190683  0.61521017  0.37460665     0.14700
C1347       C  0.17666089  0.62629328  0.35946331     0.01600
C1348       C  0.17852610  0.66290195  0.35964418    -0.16200
C1349       C  0.19540106  0.68876066  0.37461566    -0.11000
C1350       C  0.21265865  0.67855231  0.38927088     0.08300
C1351       C  0.18605113  0.57504301  0.37634476     0.09400
S1352       S  0.15310921  0.59448551  0.33988738    -0.25300
H1353       H  0.16541563  0.67064821  0.34835185     0.19600
S1354       S  0.23761102  0.71064033  0.40864569    -0.31000
H1355       H  0.22254788  0.63354158  0.40067387     0.09900
C1356       C  0.21676204  0.56714563  0.37291970     0.03100
C1357       C  0.20909820  0.52820190  0.37393630    -0.13300
C1358       C  0.17149283  0.49704855  0.37864274    -0.09000
C1359       C  0.14097273  0.50531949  0.38236184     0.06600
C1360       C  0.14866535  0.54416963  0.38126983    -0.14100
S1361       S  0.26534831  0.60646915  0.36678767    -0.31000
H1362       H  0.23251794  0.52193856  0.37108810     0.10800
S1363       S  0.09123983  0.46766971  0.38766030    -0.28100
H1364       H  0.12508939  0.55035712  0.38390723     0.08100
H1365       H  0.24663364  0.74638343  0.40006858     0.26500
H1366       H  0.28357061  0.58338188  0.36610924     0.21300
H1367       H  0.09088812  0.43938005  0.37557478     0.26600
H1368       H  0.17299801  0.57309423  0.34109824     0.15400
C1369       C  0.16318280  0.77117590  0.22878910    -0.11800
C1370       C  0.18525702  0.80576444  0.23901294     0.14700
C1371       C  0.21046590  0.84128778  0.22959129     0.01600
C1372       C  0.21139138  0.84172639  0.21018135    -0.16200
C1373       C  0.18832872  0.80737164  0.19985985    -0.11000
C1374       C  0.16433845  0.77149043  0.20934770     0.08300
C1375       C  0.17971825  0.80381586  0.25938438     0.09400
S1376       S  0.24136380  0.88727807  0.24135289    -0.25300
H1377       H  0.22999265  0.86929979  0.20303903     0.19600
S1378       S  0.13196750  0.72662158  0.19705467    -0.31000
H1379       H  0.14368996  0.74414772  0.23610753     0.09900
C1380       C  0.15890825  0.82000348  0.26810310     0.03100
C1381       C  0.15499347  0.81801724  0.28747823    -0.13300
C1382       C  0.17086390  0.79952888  0.29842077    -0.09000
C1383       C  0.18954729  0.78111082  0.28936590     0.06600
C1384       C  0.19414835  0.78393802  0.27006627    -0.14100
S1385       S  0.13733540  0.84324032  0.25457451    -0.31000
H1386       H  0.14057486  0.83213934  0.29414277     0.10800
S1387       S  0.20732065  0.75267125  0.30137354    -0.28100
H1388       H  0.20900514  0.77035532  0.26326489     0.08100
H1389       H  0.12337912  0.70090830  0.21221262     0.26500
H1390       H  0.11701324  0.84883030  0.26925780     0.21300
H1391       H  0.17602227  0.73597528  0.31417794     0.26600
H1392       H  0.24304099  0.87128659  0.25854586     0.15400
C1393       C  0.86168775  0.64033008  0.73053996    -0.11800
C1394       C  0.82458350  0.62046569  0.73908969     0.14700
C1395       C  0.79060455  0.60104093  0.72796530     0.01600
C1396       C  0.79421877  0.60360577  0.70864018    -0.16200
C1397       C  0.83123680  0.62475555  0.69996938    -0.11000
C1398       C  0.86542393  0.64222031  0.71116815     0.08300
C1399       C  0.82188846  0.62245687  0.75953646     0.09400
S1400       S  0.74180206  0.57327179  0.73767453    -0.25300
H1401       H  0.76767373  0.58990540  0.70034224     0.19600
S1402       S  0.91454998  0.66701250  0.70167453    -0.31000
H1403       H  0.88791653  0.65483925  0.73904237     0.09900
C1404       C  0.83370935  0.60188753  0.77150497     0.03100
C1405       C  0.83009897  0.60436555  0.79075936    -0.13300
C1406       C  0.81533674  0.62743591  0.79840182    -0.09000
C1407       C  0.80297932  0.64757347  0.78623928     0.06600
C1408       C  0.80668357  0.64507758  0.76704173    -0.14100
S1409       S  0.85327223  0.57238071  0.76225626    -0.31000
H1410       H  0.83994853  0.58914502  0.79992768     0.10800
S1411       S  0.78118387  0.67596014  0.79417182    -0.28100
H1412       H  0.79729295  0.66065666  0.75781461     0.08100
H1413       H  0.90522929  0.64248519  0.68604705     0.26500
H1414       H  0.86023724  0.55976444  0.77939495     0.21300
H1415       H  0.76004489  0.65017559  0.80881003     0.26600
H1416       H  0.75306594  0.55941337  0.75318368     0.15400
C1417       C  0.60137222  0.44556184  0.60297249    -0.11800
C1418       C  0.60641136  0.41563734  0.61085133     0.14700
C1419       C  0.64363236  0.42477277  0.61771651     0.01600
C1420       C  0.67419297  0.46389081  0.61774893    -0.16200
C1421       C  0.66903166  0.49436676  0.61049163    -0.11000
C1422       C  0.63211688  0.48478293  0.60280186     0.08300
C1423       C  0.57178564  0.37569421  0.61269692     0.09400
S1424       S  0.65378232  0.38778146  0.62666288    -0.25300
H1425       H  0.70246239  0.47052198  0.62338697     0.19600
S1426       S  0.62139455  0.52128189  0.59381849    -0.31000
H1427       H  0.57278316  0.43852496  0.59760777     0.09900
C1428       C  0.55295187  0.36122291  0.62994820     0.03100
C1429       C  0.51922189  0.32375518  0.63093038    -0.13300
C1430       C  0.50400177  0.30055768  0.61498047    -0.09000
C1431       C  0.52422058  0.31444461  0.59790185     0.06600
C1432       C  0.55737849  0.35205114  0.59689331    -0.14100
S1433       S  0.57047210  0.39130034  0.65052218    -0.31000
H1434       H  0.50362479  0.31327818  0.64396677     0.10800
S1435       S  0.50979830  0.28533496  0.57699031    -0.28100
H1436       H  0.57236050  0.36286260  0.58372609     0.08100
H1437       H  0.64037152  0.54803926  0.60837266     0.26500
H1438       H  0.54752182  0.36113921  0.66323896     0.21300
H1439       H  0.49462319  0.24871795  0.58601657     0.26600
H1440       H  0.62823091  0.35781415  0.61452413     0.15400
C1441       C  0.03727811  0.87333729  0.63238745    -0.11800
C1442       C  0.05939257  0.88060413  0.61612538     0.14700
C1443       C  0.04261017  0.85599666  0.60059324     0.01600
C1444       C  0.00378943  0.82494450  0.60157731    -0.16200
C1445       C  0.98167207  0.81711449  0.61796620    -0.11000
C1446       C  0.99857968  0.84207797  0.63345402     0.08300
C1447       C  0.09963019  0.91460083  0.61567717     0.09400
S1448       S  0.06936880  0.86239204  0.57929153    -0.25300
H1449       H  0.99120305  0.80589784  0.58964752     0.19600
S1450       S  0.97206822  0.83680169  0.65466756    -0.31000
H1451       H  0.05010645  0.89259344  0.64423203     0.09900
C1452       C  0.10801019  0.94993642  0.60686738     0.03100
C1453       C  0.14676820  0.98129776  0.60659655    -0.13300
C1454       C  0.17755861  0.97836519  0.61510771    -0.09000
C1455       C  0.16882558  0.94211652  0.62348266     0.06600
C1456       C  0.12994044  0.91104301  0.62396531    -0.14100
S1457       S  0.06910910  0.95561727  0.59660767    -0.31000
H1458       H  0.15280449  0.00860295  0.60007241     0.10800
S1459       S  0.20568872  0.93247029  0.63286233    -0.28100
H1460       H  0.12331759  0.88341619  0.63043708     0.08100
H1461       H  0.93560606  0.82435894  0.64603483     0.26500
H1462       H  0.09352488  0.99207475  0.58793844     0.21300
H1463       H  0.23139096  0.94989298  0.61773508     0.26600
H1464       H  0.10660294  0.87706675  0.58748961     0.15400
C1465       C  0.86381430  0.40490046  0.61325119    -0.11800
C1466       C  0.82649404  0.39797604  0.61864417     0.14700
C1467       C  0.79574507  0.35900281  0.62140426     0.01600
C1468       C  0.80305904  0.32789298  0.61898958    -0.16200
C1469       C  0.84065091  0.33467171  0.61410044    -0.11000
C1470       C  0.87137520  0.37377268  0.61115533     0.08300
C1471       C  0.82032535  0.43194720  0.62086281     0.09400
S1472       S  0.74671786  0.34707927  0.62817004    -0.25300
H1473       H  0.77925905  0.29802658  0.62126966     0.19600
S1474       S  0.92108722  0.38613997  0.60564157    -0.31000
H1475       H  0.88741974  0.43487785  0.61104965     0.09900
C1476       C  0.83335979  0.45592446  0.63679929     0.03100
C1477       C  0.82894206  0.48928303  0.63779815    -0.13300
C1478       C  0.81176663  0.49887228  0.62312462    -0.09000
C1479       C  0.79655605  0.47335421  0.60771854     0.06600
C1480       C  0.80135382  0.44043469  0.60667276    -0.14100
S1481       S  0.85602374  0.44420528  0.65567734    -0.31000
H1482       H  0.84045392  0.50888852  0.64958638     0.10800
S1483       S  0.77101417  0.48134187  0.58887020    -0.28100
H1484       H  0.79057007  0.42146066  0.59462418     0.08100
H1485       H  0.92143637  0.35742556  0.61723271     0.26500
H1486       H  0.86209621  0.47556945  0.66726921     0.21300
H1487       H  0.75856389  0.50386365  0.59890486     0.26600
H1488       H  0.75802941  0.38102681  0.63884908     0.15400
C1489       C  0.83882172  0.96472014  0.59665808    -0.11800
C1490       C  0.84618454  0.94831354  0.61238536     0.14700
C1491       C  0.85855366  0.97036383  0.62894959     0.01600
C1492       C  0.86353348  0.00826660  0.62938698    -0.16200
C1493       C  0.85609820  0.02483534  0.61369805    -0.11000
C1494       C  0.84306751  0.00239531  0.59719364     0.08300
C1495       C  0.84051755  0.90810102  0.61120327     0.09400
S1496       S  0.86929814  0.95228107  0.64989929    -0.25300
H1497       H  0.87341003  0.02505909  0.64213232     0.19600
S1498       S  0.82924768  0.01904125  0.57672050    -0.31000
H1499       H  0.82885974  0.94766355  0.58399313     0.09900
C1500       C  0.80370859  0.87468371  0.61498619     0.03100
C1501       C  0.80010542  0.83723984  0.61504100    -0.13300
C1502       C  0.83255722  0.83230471  0.61132536    -0.09000
C1503       C  0.86954432  0.86616686  0.60744835     0.06600
C1504       C  0.87287928  0.90345649  0.60717397    -0.14100
S1505       S  0.76157995  0.87993193  0.62029524    -0.31000
H1506       H  0.77179049  0.81160329  0.61799033     0.10800
S1507       S  0.91423805  0.86449016  0.60410857    -0.28100
H1508       H  0.90127561  0.92926634  0.60445774     0.08100
H1509       H  0.81145526  0.03717165  0.58642818     0.26500
H1510       H  0.73454215  0.83964366  0.62290612     0.21300
H1511       H  0.90611930  0.83714222  0.61846243     0.26600
H1512       H  0.84169963  0.91230316  0.64725324     0.15400
C1513       C  0.60440281  0.81035279  0.26830002    -0.11800
C1514       C  0.63878589  0.82215520  0.25786397     0.14700
C1515       C  0.67546793  0.84045475  0.26703791     0.01600
C1516       C  0.67680154  0.84381990  0.28636813    -0.16200
C1517       C  0.64239905  0.83070694  0.29704136    -0.11000
C1518       C  0.60584695  0.81505028  0.28767425     0.08300
C1519       C  0.63595510  0.81540411  0.23746559     0.09400
S1520       S  0.72174995  0.85976893  0.25490593    -0.25300
H1521       H  0.70517799  0.85612786  0.29313607     0.19600
S1522       S  0.56031605  0.80174193  0.29946156    -0.31000
H1523       H  0.57624416  0.79744065  0.26128826     0.09900
C1524       C  0.64424408  0.78765700  0.22928768     0.03100
C1525       C  0.64588881  0.78559697  0.20982872    -0.13300
C1526       C  0.63876510  0.81029500  0.19829225    -0.09000
C1527       C  0.62958851  0.83746716  0.20663367     0.06600
C1528       C  0.62774427  0.83928380  0.22600828    -0.14100
S1529       S  0.65239592  0.75466446  0.24368737    -0.31000
H1530       H  0.65269626  0.76465004  0.20354324     0.10800
S1531       S  0.62307018  0.87290635  0.19347918    -0.28100
H1532       H  0.62175248  0.86088680  0.23223735     0.08100
H1533       H  0.57754493  0.83224918  0.31260765     0.26500
H1534       H  0.65729326  0.73362758  0.22914449     0.21300
H1535       H  0.65287474  0.88046289  0.18054009     0.26600
H1536       H  0.70968084  0.87067279  0.23868319     0.15400
C1537       C  0.72377639  0.71485173  0.47603250    -0.11800
C1538       C  0.74288086  0.74435588  0.48942884     0.14700
C1539       C  0.75122641  0.78306436  0.48542665     0.01600
C1540       C  0.74025400  0.79129865  0.46825201    -0.16200
C1541       C  0.72053521  0.76167452  0.45495342    -0.11000
C1542       C  0.71285515  0.72309906  0.45884132     0.08300
C1543       C  0.75473833  0.73395663  0.50714617     0.09400
S1544       S  0.77530752  0.82317270  0.50164441    -0.25300
H1545       H  0.74636667  0.82099513  0.46540909     0.19600
S1546       S  0.69122761  0.68366279  0.44217203    -0.31000
H1547       H  0.71801374  0.68527921  0.47888682     0.09900
C1548       C  0.72654093  0.70950189  0.52034135     0.03100
C1549       C  0.73889258  0.69978322  0.53678526    -0.13300
C1550       C  0.77896930  0.71340845  0.54032699    -0.09000
C1551       C  0.80703009  0.73709984  0.52672397     0.06600
C1552       C  0.79470372  0.74762051  0.51052141    -0.14100
S1553       S  0.67480202  0.69150969  0.51649583    -0.31000
H1554       H  0.71711769  0.68175466  0.54706487     0.10800
S1555       S  0.85841817  0.75231372  0.52838992    -0.28100
H1556       H  0.81633672  0.76564387  0.50016159     0.08100
H1557       H  0.70959118  0.70765969  0.42660810     0.26500
H1558       H  0.66083619  0.66524798  0.53161279     0.21300
H1559       H  0.85137259  0.71573688  0.53525874     0.26600
H1560       H  0.76198431  0.80021233  0.51785686     0.15400
C1561       C  0.88914065  0.02264274  0.36608362    -0.11800
C1562       C  0.89731951  0.04396787  0.38263920     0.14700
C1563       C  0.87338825  0.02632376  0.39836105     0.01600
C1564       C  0.84123422  0.98815351  0.39702762    -0.16200
C1565       C  0.83236831  0.96703836  0.38032716    -0.11000
C1566       C  0.85727389  0.98431023  0.36480195     0.08300
C1567       C  0.93060902  0.08476969  0.38292700     0.09400
S1568       S  0.88164333  0.05120217  0.42033215    -0.25300
H1569       H  0.82238378  0.97518955  0.40902731     0.19600
S1570       S  0.85085583  0.95882534  0.34319036    -0.31000
H1571       H  0.90786461  0.03600167  0.35408310     0.09900
C1572       C  0.96975623  0.09266051  0.38326358     0.03100
C1573       C  0.00051130  0.13180160  0.38378425    -0.13300
C1574       C  0.99294954  0.16327200  0.38371856    -0.09000
C1575       C  0.95357509  0.15516884  0.38316766     0.06600
C1576       C  0.92287058  0.11601606  0.38274188    -0.14100
S1577       S  0.98047184  0.05286195  0.38332469    -0.31000
H1578       H  0.03069864  0.13801860  0.38399211     0.10800
S1579       S  0.94043090  0.19311587  0.38350279    -0.28100
H1580       H  0.89266298  0.10977649  0.38242874     0.08100
H1581       H  0.83753936  0.92172402  0.35143404     0.26500
H1582       H  0.02169631  0.07646243  0.38240593     0.21300
H1583       H  0.97211261  0.21940637  0.39461824     0.26600
H1584       H  0.92267308  0.07487755  0.41854613     0.15400
C1585       C  0.36091477  0.54909876  0.38864254    -0.11800
C1586       C  0.38986443  0.55513831  0.37558724     0.14700
C1587       C  0.38091997  0.52718763  0.36134057     0.01600
C1588       C  0.34369431  0.49315420  0.36090587    -0.16200
C1589       C  0.31509526  0.48675356  0.37427470    -0.11000
C1590       C  0.32361102  0.51552617  0.38803565     0.08300
C1591       C  0.42932561  0.59031028  0.37766201     0.09400
S1592       S  0.41582530  0.53294270  0.34358487    -0.25300
H1593       H  0.33732183  0.47109647  0.35036028     0.19600
S1594       S  0.28823764  0.51108850  0.40528171    -0.31000
H1595       H  0.36757192  0.57068098  0.39946906     0.09900
C1596       C  0.43599441  0.62819256  0.37335090     0.03100
C1597       C  0.47378198  0.66075236  0.37553270    -0.13300
C1598       C  0.50517519  0.65641468  0.38209271    -0.09000
C1599       C  0.49811395  0.61832454  0.38670527     0.06600
C1600       C  0.46027251  0.58580017  0.38454759    -0.14100
S1601       S  0.39658602  0.63499076  0.36466023    -0.31000
H1602       H  0.47900768  0.68983924  0.37200689     0.10800
S1603       S  0.53631612  0.60889781  0.39437208    -0.28100
H1604       H  0.45499439  0.55662086  0.38796965     0.08100
H1605       H  0.25453489  0.48823483  0.39448493     0.26500
H1606       H  0.41855302  0.67625066  0.36301875     0.21300
H1607       H  0.56374919  0.63375015  0.38103194     0.26600
H1608       H  0.43596346  0.57432732  0.34322829     0.15400
C1609       C  0.95595067  0.79354007  0.38273047    -0.11800
C1610       C  0.95106745  0.82615930  0.38559874     0.14700
C1611       C  0.98432099  0.86352180  0.38889738     0.01600
C1612       C  0.02178303  0.86742919  0.38913299    -0.16200
C1613       C  0.02671352  0.83491941  0.38580560    -0.11000
C1614       C  0.99330019  0.79740969  0.38302652     0.08300
C1615       C  0.91074404  0.81983877  0.38547604     0.09400
S1616       S  0.98105685  0.90730281  0.39261978    -0.25300
H1617       H  0.04735764  0.89625689  0.39130402     0.19600
S1618       S  0.99627642  0.75318349  0.38054565    -0.31000
H1619       H  0.93036192  0.76474911  0.38051421     0.09900
C1620       C  0.89089291  0.81604662  0.36868449     0.03100
C1621       C  0.85259568  0.80999256  0.36911386    -0.13300
C1622       C  0.83360726  0.80739101  0.38601787    -0.09000
C1623       C  0.85314019  0.80969189  0.40287096     0.06600
C1624       C  0.89167782  0.81638961  0.40239728    -0.14100
S1625       S  0.91495211  0.82063973  0.34670224    -0.31000
H1626       H  0.83784020  0.80859237  0.35620438     0.10800
S1627       S  0.83017055  0.80284083  0.42531635    -0.28100
H1628       H  0.90676813  0.81837883  0.41529027     0.08100
H1629       H  0.02873473  0.76519744  0.39243669     0.26500
H1630       H  0.88130734  0.80809168  0.33558116     0.21300
H1631       H  0.79182744  0.77596919  0.41927909     0.26600
H1632       H  0.94650130  0.89545929  0.38235457     0.15400
C1633       C  0.37825880  0.79966569  0.36921474    -0.11800
C1634       C  0.41012720  0.82240660  0.38086104     0.14700
C1635       C  0.40673536  0.84679400  0.39425778     0.01600
C1636       C  0.37201914  0.84867779  0.39532761    -0.16200
C1637       C  0.33988094  0.82601056  0.38356729    -0.11000
C1638       C  0.34309476  0.80022600  0.37068237     0.08300
C1639       C  0.44664679  0.82054336  0.37824780     0.09400
S1640       S  0.44565167  0.87622160  0.41033152    -0.25300
H1641       H  0.37040288  0.86842606  0.40531907     0.19600
S1642       S  0.30367987  0.76610446  0.35591546    -0.31000
H1643       H  0.38067922  0.78077595  0.35896463     0.09900
C1644       C  0.44714295  0.78509815  0.38092285     0.03100
C1645       C  0.48210037  0.78445194  0.37787489    -0.13300
C1646       C  0.51675293  0.81867667  0.37267086    -0.09000
C1647       C  0.51616998  0.85399818  0.36980346     0.06600
C1648       C  0.48110172  0.85449235  0.37248425    -0.14100
S1649       S  0.40407043  0.74131100  0.38937931    -0.31000
H1650       H  0.48304598  0.75772521  0.38048107     0.10800
S1651       S  0.55925890  0.89936086  0.36293485    -0.28100
H1652       H  0.48067869  0.88159702  0.37017275     0.08100
H1653       H  0.27585822  0.75279867  0.37027820     0.26500
H1654       H  0.42197591  0.71820955  0.39173688     0.21300
H1655       H  0.57815733  0.88177268  0.35373902     0.26600
H1656       H  0.45948725  0.84948609  0.41207195     0.15400
loop_ 
_geom_bond_atom_site_label_1 
_geom_bond_atom_site_label_2 
_geom_bond_distance 
_geom_bond_site_symmetry_2 
_ccdc_geom_bond_type 
Zr1           O2   2.439       .  S
Zr1           O3   2.420       .  S
Zr1           O4   2.428       .  S
Zr1           O7   2.422       .  S
Zr1           O9   2.377       .  S
Zr1          O10   2.381       .  S
Zr1          O11   2.399       .  S
Zr1          O12   2.397       .  S
O2           H58   0.990       .  S
O2           H66   0.990       .  S
O3           C23   1.282       .  A
O4           C25   1.284       .  A
O5          Zr15   2.431       .  S
O5           C24   1.285       .  A
O6          Zr14   2.436       .  S
O6           C25   1.286       .  A
O7           C24   1.284       .  A
O8          Zr16   2.430       .  S
O8           C23   1.284       .  A
O9          Zr14   2.388       .  S
O9          Zr16   2.367       .  S
O10         Zr15   2.387       .  S
O10         Zr16   2.374       .  S
O10          H45   0.966       .  S
O11         Zr14   2.400       .  S
O11         Zr31   2.396       .  S
O11          H48   0.966       .  S
O12         Zr15   2.391       .  S
O12         Zr31   2.390       .  S
Zr13         O38   2.453       .  S
Zr13         O32   2.439       .  S
Zr13         O40   2.440       .  S
Zr13         O28   2.415       .  S
Zr13         O19   2.394       .  S
Zr13         O20   2.409       .  S
Zr13         O21   2.378       .  S
Zr13         O22   2.382       .  S
Zr14         O33   2.436       .  S
Zr14         O26   2.433       .  S
Zr14         O27   2.441       .  S
Zr14         O20   2.398       .  S
Zr14         O21   2.387       .  S
Zr15         O17   2.435       .  S
Zr15         O39   2.436       .  S
Zr15         O41   2.429       .  S
Zr15         O19   2.386       .  S
Zr15         O22   2.385       .  S
Zr16         O42   2.435       .  S
Zr16         O43   2.435       .  S
Zr16         O18   2.436       .  S
Zr16         O19   2.392       .  S
Zr16         O20   2.401       .  S
O17          H54   0.990       .  S
O18          H49   0.990       .  S
O18          H63   0.990       .  S
O20          H46   0.966       .  S
O21         Zr31   2.371       .  S
O22         Zr31   2.388       .  S
O22          H47   0.966       .  S
C23        C1622   1.475       .  S
C24        C1565   1.475       .  S
C25        C1541   1.479       .  S
O26          H62   0.989       .  S
O27          C29   1.286       .  A
O28          C29   1.281       .  A
C29        C1598   1.480       .  S
O30         Zr31   2.440       .  S
O30          H59   0.990       .  S
Zr31         O34   2.437       .  S
Zr31         O35   2.439       .  S
Zr31         O36   2.411       .  S
O32          C37   1.285       .  A
O33          H50   0.990       .  S
O33          H65   0.990       .  S
O34          H51   0.990       .  S
O35          H55   0.990       .  S
O35          H64   0.990       .  S
O36          C37   1.280       .  A
C37        C1646   1.467       .  S
O38          H57   0.990       .  S
O38          H61   0.990       .  S
O39          H53   0.990       .  S
O39          H60   0.989       .  S
O40          C44   1.285       .  A
O41          C44   1.285       .  A
O42          H52   0.990       .  S
O43          H56   0.990       .  S
C44        C1517   1.492       .  S
Zr67         O68   2.434       .  S
Zr67         O69   2.424       .  S
Zr67         O70   2.451       .  S
Zr67         O73   2.419       .  S
Zr67         O75   2.378       .  S
Zr67         O76   2.388       .  S
Zr67         O77   2.400       .  S
Zr67         O78   2.400       .  S
O68         H124   0.990       .  S
O68         H132   0.990       .  S
O69          C89   1.282       .  A
O70          C91   1.288       .  A
O71         Zr81   2.435       .  S
O71          C90   1.286       .  A
O72         Zr80   2.429       .  S
O72          C91   1.285       .  A
O73          C90   1.284       .  A
O74         Zr82   2.446       .  S
O74          C89   1.288       .  A
O75         Zr80   2.392       .  S
O75         Zr82   2.369       .  S
O76         Zr81   2.386       .  S
O76         Zr82   2.374       .  S
O76         H111   0.965       .  S
O77         Zr80   2.400       .  S
O77         Zr97   2.399       .  S
O77         H114   0.966       .  S
O78         Zr81   2.392       .  S
O78         Zr97   2.386       .  S
Zr79        O104   2.443       .  S
Zr79         O98   2.440       .  S
Zr79        O106   2.421       .  S
Zr79         O94   2.414       .  S
Zr79         O85   2.396       .  S
Zr79         O86   2.409       .  S
Zr79         O87   2.371       .  S
Zr79         O88   2.381       .  S
Zr80         O99   2.436       .  S
Zr80         O92   2.436       .  S
Zr80         O93   2.446       .  S
Zr80         O86   2.396       .  S
Zr80         O87   2.379       .  S
Zr81         O83   2.435       .  S
Zr81        O105   2.436       .  S
Zr81        O107   2.440       .  S
Zr81         O85   2.382       .  S
Zr81         O88   2.385       .  S
Zr82        O108   2.436       .  S
Zr82        O109   2.436       .  S
Zr82         O84   2.436       .  S
Zr82         O85   2.396       .  S
Zr82         O86   2.412       .  S
O83         H120   0.990       .  S
O84         H115   0.990       .  S
O84         H129   0.990       .  S
O86         H112   0.966       .  S
O87         Zr97   2.366       .  S
O88         Zr97   2.387       .  S
O88         H113   0.965       .  S
C89        C1502   1.487       .  S
C90        C1445   1.475       .  S
C91        C1550   1.491       .  S
O92         H128   0.990       .  S
O93          C95   1.287       .  A
O94          C95   1.282       .  A
C95        C1421   1.483       .  S
O96         Zr97   2.439       .  S
O96         H125   0.990       .  S
Zr97        O100   2.437       .  S
Zr97        O101   2.439       .  S
Zr97        O102   2.414       .  S
O98         C103   1.285       .  A
O99         H116   0.990       .  S
O99         H131   0.990       .  S
O100        H117   0.990       .  S
O101        H121   0.990       .  S
O101        H130   0.990       .  S
O102        C103   1.281       .  A
C103       C1478   1.470       .  S
O104        H123   0.990       .  S
O104        H127   0.990       .  S
O105        H119   0.990       .  S
O105        H126   0.989       .  S
O106        C110   1.283       .  A
O107        C110   1.286       .  A
O108        H118   0.990       .  S
O109        H122   0.990       .  S
C110       C1397   1.484       .  S
Zr133       O134   2.439       .  S
Zr133       O135   2.428       .  S
Zr133       O136   2.433       .  S
Zr133       O139   2.424       .  S
Zr133       O141   2.380       .  S
Zr133       O142   2.384       .  S
Zr133       O143   2.404       .  S
Zr133       O144   2.398       .  S
O134        H190   0.990       .  S
O134        H198   0.990       .  S
O135        C155   1.284       .  A
O136        C157   1.285       .  A
O137       Zr147   2.426       .  S
O137        C156   1.284       .  A
O138       Zr146   2.435       .  S
O138        C157   1.286       .  A
O139        C156   1.284       .  A
O140       Zr148   2.445       .  S
O140        C155   1.286       .  A
O141       Zr146   2.395       .  S
O141       Zr148   2.369       .  S
O142       Zr147   2.388       .  S
O142       Zr148   2.376       .  S
O142        H177   0.966       .  S
O143       Zr146   2.402       .  S
O143       Zr163   2.400       .  S
O143        H180   0.966       .  S
O144       Zr147   2.390       .  S
O144       Zr163   2.385       .  S
Zr145       O170   2.451       .  S
Zr145       O164   2.443       .  S
Zr145       O172   2.424       .  S
Zr145       O160   2.404       .  S
Zr145       O151   2.394       .  S
Zr145       O152   2.405       .  S
Zr145       O153   2.374       .  S
Zr145       O154   2.378       .  S
Zr146       O165   2.436       .  S
Zr146       O158   2.435       .  S
Zr146       O159   2.455       .  S
Zr146       O152   2.394       .  S
Zr146       O153   2.379       .  S
Zr147       O149   2.436       .  S
Zr147       O171   2.438       .  S
Zr147       O173   2.436       .  S
Zr147       O151   2.384       .  S
Zr147       O154   2.384       .  S
Zr148       O174   2.435       .  S
Zr148       O175   2.436       .  S
Zr148       O150   2.435       .  S
Zr148       O151   2.398       .  S
Zr148       O152   2.407       .  S
O149        H186   0.990       .  S
O150        H181   0.990   1_565  S
O150        H195   0.990       .  S
O152        H178   0.966       .  S
O153       Zr163   2.369       .  S
O154       Zr163   2.388       .  S
O154        H179   0.964       .  S
C155       C1325   1.486   1_565  S
C156       C1613   1.469       .  S
C157       C1301   1.481       .  S
O158        H194   0.989       .  S
O159        C161   1.290       .  A
O160        C161   1.277       .  A
C161       C1637   1.493       .  S
O162       Zr163   2.440       .  S
O162        H191   0.990       .  S
Zr163       O166   2.437       .  S
Zr163       O167   2.441       .  S
Zr163       O168   2.417       .  S
O164        C169   1.286       .  A
O165        H182   0.990       .  S
O165        H197   0.990       .  S
O166        H183   0.990       .  S
O167        H187   0.990       .  S
O167        H196   0.990       .  S
O168        C169   1.281       .  A
C169       C1349   1.472       .  S
O170        H189   0.990       .  S
O170        H193   0.990       .  S
O171        H185   0.990       .  S
O171        H192   0.990       .  S
O172        C176   1.282       .  A
O173        C176   1.286       .  A
O174        H184   0.990       .  S
O175        H188   0.990       .  S
C176       C1382   1.490       .  S
Zr199       O200   2.436       .  S
Zr199       O201   2.413       .  S
Zr199       O202   2.448       .  S
Zr199       O205   2.443       .  S
Zr199       O207   2.380       .  S
Zr199       O208   2.382       .  S
Zr199       O209   2.401       .  S
Zr199       O210   2.397       .  S
O200        H256   0.990       .  S
O200        H264   0.989       .  S
O201        C221   1.281       .  A
O202        C223   1.287       .  A
O203       Zr213   2.419       .  S
O203        C222   1.283       .  A
O204       Zr212   2.422       .  S
O204        C223   1.283       .  A
O205        C222   1.287       .  A
O206       Zr214   2.432       .  S
O206        C221   1.283       .  A
O207       Zr212   2.393       .  S
O207       Zr214   2.370       .  S
O208       Zr213   2.390       .  S
O208       Zr214   2.376       .  S
O208        H243   0.966       .  S
O209       Zr212   2.402       .  S
O209       Zr229   2.394       .  S
O209        H246   0.966       .  S
O210       Zr213   2.390       .  S
O210       Zr229   2.387       .  S
Zr211       O236   2.442       .  S
Zr211       O230   2.447       .  S
Zr211       O238   2.434       .  S
Zr211       O226   2.429       .  S
Zr211       O217   2.399       .  S
Zr211       O218   2.413       .  S
Zr211       O219   2.376       .  S
Zr211       O220   2.381       .  S
Zr212       O231   2.436       .  S
Zr212       O224   2.436       .  S
Zr212       O225   2.434       .  S
Zr212       O218   2.398       .  S
Zr212       O219   2.388       .  S
Zr213       O215   2.435       .  S
Zr213       O237   2.439       .  S
Zr213       O239   2.423       .  S
Zr213       O217   2.385       .  S
Zr213       O220   2.393       .  S
Zr214       O240   2.436       .  S
Zr214       O241   2.436       .  S
Zr214       O216   2.436       .  S
Zr214       O217   2.393       .  S
Zr214       O218   2.398       .  S
O215        H252   0.990       .  S
O216        H247   0.990   1_545  S
O216        H261   0.990       .  S
O218        H244   0.966       .  S
O219       Zr229   2.377       .  S
O220       Zr229   2.392       .  S
O220        H245   0.966       .  S
C221       C1454   1.487   1_545  S
C222       C1286   1.483       .  S
C223       C1310   1.484       .  S
O224        H260   0.990       .  S
O225        C227   1.284       .  A
O226        C227   1.282       .  A
C227       C1253   1.476       .  S
O228       Zr229   2.440       .  S
O228        H257   0.990       .  S
Zr229       O232   2.437       .  S
Zr229       O233   2.440       .  S
Zr229       O234   2.402       .  S
O230        C235   1.285       .  A
O231        H248   0.990       .  S
O231        H263   0.990       .  S
O232        H249   0.990       .  S
O233        H253   0.990       .  S
O233        H262   0.990       .  S
O234        C235   1.278       .  A
C235       C1430   1.476       .  S
O236        H255   0.990       .  S
O236        H259   0.990       .  S
O237        H251   0.990       .  S
O237        H258   0.990       .  S
O238        C242   1.285       .  A
O239        C242   1.282       .  A
O240        H250   0.990       .  S
O241        H254   0.990       .  S
C242       C1229   1.487       .  S
Zr265       O266   2.438       .  S
Zr265       O267   2.419       .  S
Zr265       O268   2.438       .  S
Zr265       O271   2.422       .  S
Zr265       O273   2.379       .  S
Zr265       O274   2.387       .  S
Zr265       O275   2.399       .  S
Zr265       O276   2.399       .  S
O266        H322   0.990       .  S
O266        H330   0.990       .  S
O267        C287   1.282       .  A
O268        C289   1.286       .  A
O269       Zr279   2.451       .  S
O269        C288   1.288       .  A
O270       Zr278   2.432       .  S
O270        C289   1.285       .  A
O271        C288   1.284       .  A
O272       Zr280   2.442       .  S
O272        C287   1.285       .  A
O273       Zr278   2.391       .  S
O273       Zr280   2.367       .  S
O274       Zr279   2.387       .  S
O274       Zr280   2.380       .  S
O274        H309   0.965       .  S
O275       Zr278   2.399       .  S
O275       Zr295   2.397       .  S
O275        H312   0.966       .  S
O276       Zr279   2.392       .  S
O276       Zr295   2.392       .  S
Zr277       O302   2.440       .  S
Zr277       O296   2.442       .  S
Zr277       O304   2.429       .  S
Zr277       O292   2.426       .  S
Zr277       O283   2.397       .  S
Zr277       O284   2.415       .  S
Zr277       O285   2.375       .  S
Zr277       O286   2.382       .  S
Zr278       O297   2.438       .  S
Zr278       O290   2.433       .  S
Zr278       O291   2.436       .  S
Zr278       O284   2.399       .  S
Zr278       O285   2.388       .  S
Zr279       O281   2.435       .  S
Zr279       O303   2.436       .  S
Zr279       O305   2.445       .  S
Zr279       O283   2.387       .  S
Zr279       O286   2.393       .  S
Zr280       O306   2.434       .  S
Zr280       O307   2.436       .  S
Zr280       O282   2.437       .  S
Zr280       O283   2.393       .  S
Zr280       O284   2.410       .  S
O281        H318   0.990       .  S
O282        H313   0.990   1_455  S
O282        H327   0.990       .  S
O284        H310   0.966       .  S
O285       Zr295   2.370       .  S
O286       Zr295   2.392       .  S
O286        H311   0.966       .  S
C287       C1574   1.476   1_455  S
C288       C1334   1.484       .  S
C289       C1190   1.486       .  S
O290        H326   0.989       .  S
O291        C293   1.285       .  A
O292        C293   1.282       .  A
C293       C1358   1.479       .  S
O294       Zr295   2.438       .  S
O294        H323   0.990       .  S
Zr295       O298   2.438       .  S
Zr295       O299   2.439       .  S
Zr295       O300   2.415       .  S
O296        C301   1.284       .  A
O297        H314   0.990       .  S
O297        H329   0.990       .  S
O298        H315   0.990       .  S
O299        H319   0.990       .  S
O299        H328   0.990       .  S
O300        C301   1.280       .  A
C301       C1589   1.471       .  S
O302        H321   0.990       .  S
O302        H325   0.990       .  S
O303        H317   0.990       .  S
O303        H324   0.990       .  S
O304        C308   1.284       .  A
O305        C308   1.286       .  A
O306        H316   0.990       .  S
O307        H320   0.990       .  S
C308       C1205   1.491       .  S
Zr331       O332   2.439       .  S
Zr331       O333   2.432       .  S
Zr331       O334   2.447       .  S
Zr331       O337   2.440       .  S
Zr331       O339   2.385       .  S
Zr331       O340   2.387       .  S
Zr331       O341   2.404       .  S
Zr331       O342   2.395       .  S
O332        H388   0.990       .  S
O332        H396   0.990       .  S
O333        C353   1.284       .  A
O334        C355   1.286       .  A
O335       Zr345   2.429       .  S
O335        C354   1.285       .  A
O336       Zr344   2.420       .  S
O336        C355   1.283       .  A
O337        C354   1.287       .  A
O338       Zr346   2.445       .  S
O338        C353   1.286       .  A
O339       Zr344   2.398       .  S
O339       Zr346   2.373       .  S
O340       Zr345   2.391       .  S
O340       Zr346   2.380       .  S
O340        H375   0.966       .  S
O341       Zr344   2.402       .  S
O341       Zr361   2.399       .  S
O341        H378   0.966       .  S
O342       Zr345   2.391       .  S
O342       Zr361   2.383       .  S
Zr343       O368   2.443       .  S
Zr343       O362   2.449       .  S
Zr343       O370   2.417       .  S
Zr343       O358   2.417       .  S
Zr343       O349   2.396       .  S
Zr343       O350   2.413       .  S
Zr343       O351   2.372       .  S
Zr343       O352   2.380       .  S
Zr344       O363   2.437       .  S
Zr344       O356   2.433       .  S
Zr344       O357   2.439       .  S
Zr344       O350   2.390       .  S
Zr344       O351   2.388       .  S
Zr345       O347   2.435       .  S
Zr345       O369   2.439       .  S
Zr345       O371   2.437       .  S
Zr345       O349   2.382       .  S
Zr345       O352   2.389       .  S
Zr346       O372   2.434       .  S
Zr346       O373   2.437       .  S
Zr346       O348   2.436       .  S
Zr346       O349   2.386       .  S
Zr346       O350   2.411       .  S
O347        H384   0.990       .  S
O348        H379   0.991   1_655  S
O348        H393   0.990   1_655  S
O350        H376   0.966       .  S
O351       Zr361   2.375       .  S
O352       Zr361   2.390       .  S
O352        H377   0.966       .  S
C353       C1277   1.491   1_655  S
C354       C1493   1.482       .  S
C355       C1181   1.485       .  S
O356        H392   0.990       .  S
O357        C359   1.285       .  A
O358        C359   1.280       .  A
C359       C1469   1.477       .  S
O360       Zr361   2.439       .  S
O360        H389   0.990       .  S
Zr361       O364   2.438       .  S
Zr361       O365   2.437       .  S
Zr361       O366   2.410       .  S
O362        C367   1.286       .  A
O363        H380   0.990       .  S
O363        H395   0.990       .  S
O364        H381   0.990       .  S
O365        H385   0.990       .  S
O365        H394   0.989       .  S
O366        C367   1.280       .  A
C367       C1262   1.476       .  S
O368        H387   0.991       .  S
O368        H391   0.990       .  S
O369        H383   0.990       .  S
O369        H390   0.990       .  S
O370        C374   1.282       .  A
O371        C374   1.285       .  A
O372        H382   0.990       .  S
O373        H386   0.990       .  S
C374       C1166   1.477       .  S
Zr397       O398   2.439       .  S
Zr397       O399   2.415       .  S
Zr397       O400   2.428       .  S
Zr397       O403   2.431       .  S
Zr397       O405   2.379       .  S
Zr397       O406   2.383       .  S
Zr397       O407   2.401       .  S
Zr397       O408   2.390       .  S
O398        H454   0.990       .  S
O398        H462   0.990       .  S
O399        C419   1.282       .  A
O400        C421   1.283       .  A
O401       Zr411   2.426       .  S
O401        C420   1.284       .  A
O402       Zr410   2.435       .  S
O402        C421   1.286       .  A
O403        C420   1.285       .  A
O404       Zr412   2.439       .  S
O404        C419   1.285       .  A
O405       Zr410   2.393       .  S
O405       Zr412   2.365       .  S
O406       Zr411   2.391       .  S
O406       Zr412   2.381       .  S
O406        H441   0.966       .  S
O407       Zr410   2.400       .  S
O407       Zr427   2.393       .  S
O407        H444   0.966       .  S
O408       Zr411   2.394       .  S
O408       Zr427   2.384       .  S
Zr409       O434   2.442       .  S
Zr409       O428   2.448       .  S
Zr409       O436   2.429       .  S
Zr409       O424   2.418       .  S
Zr409       O415   2.390       .  S
Zr409       O416   2.418       .  S
Zr409       O417   2.378       .  S
Zr409       O418   2.379       .  S
Zr410       O429   2.435       .  S
Zr410       O422   2.435       .  S
Zr410       O423   2.444       .  S
Zr410       O416   2.401       .  S
Zr410       O417   2.394       .  S
Zr411       O413   2.437       .  S
Zr411       O435   2.440       .  S
Zr411       O437   2.440       .  S
Zr411       O415   2.379       .  S
Zr411       O418   2.394       .  S
Zr412       O438   2.434       .  S
Zr412       O439   2.436       .  S
Zr412       O414   2.436       .  S
Zr412       O415   2.386       .  S
Zr412       O416   2.409       .  S
O413        H450   0.990       .  S
O414        H445   0.990       .  S
O414        H459   0.990       .  S
O416        H442   0.966       .  S
O417       Zr427   2.379       .  S
O418       Zr427   2.395       .  S
O418        H443   0.965       .  S
C419       C1118   1.486       .  S
C420       C1046   1.473       .  S
C421       C1133   1.477       .  S
O422        H458   0.990       .  S
O423        C425   1.286       .  A
O424        C425   1.279       .  A
C425       C1061   1.478       .  S
O426       Zr427   2.438       .  S
O426        H455   0.990       .  S
Zr427       O430   2.438       .  S
Zr427       O431   2.438       .  S
Zr427       O432   2.396       .  S
O428        C433   1.286       .  A
O429        H446   0.990       .  S
O429        H461   0.990       .  S
O430        H447   0.990       .  S
O431        H451   0.990       .  S
O431        H460   0.990       .  S
O432        C433   1.276       .  A
C433       C1094   1.485       .  S
O434        H453   0.991       .  S
O434        H457   0.990       .  S
O435        H449   0.990       .  S
O435        H456   0.990       .  S
O436        C440   1.284       .  A
O437        C440   1.286       .  A
O438        H448   0.990       .  S
O439        H452   0.990       .  S
C440       C1214   1.485       .  S
Zr463       O464   2.439       .  S
Zr463       O465   2.403       .  S
Zr463       O466   2.435       .  S
Zr463       O469   2.433       .  S
Zr463       O471   2.380       .  S
Zr463       O472   2.384       .  S
Zr463       O473   2.397       .  S
Zr463       O474   2.392       .  S
O464        H520   0.991       .  S
O464        H528   0.990       .  S
O465        C485   1.279       .  A
O466        C487   1.284       .  A
O467       Zr477   2.425       .  S
O467        C486   1.284       .  A
O468       Zr476   2.425       .  S
O468        C487   1.284       .  A
O469        C486   1.285       .  A
O470       Zr478   2.434       .  S
O470        C485   1.284       .  A
O471       Zr476   2.389       .  S
O471       Zr478   2.367       .  S
O472       Zr477   2.390       .  S
O472       Zr478   2.381       .  S
O472        H507   0.966       .  S
O473       Zr476   2.404       .  S
O473       Zr493   2.398       .  S
O473        H510   0.966       .  S
O474       Zr477   2.392       .  S
O474       Zr493   2.386       .  S
Zr475       O500   2.442       .  S
Zr475       O494   2.439       .  S
Zr475       O502   2.426       .  S
Zr475       O490   2.419       .  S
Zr475       O481   2.392       .  S
Zr475       O482   2.410       .  S
Zr475       O483   2.374       .  S
Zr475       O484   2.380       .  S
Zr476       O495   2.436       .  S
Zr476       O488   2.434       .  S
Zr476       O489   2.431       .  S
Zr476       O482   2.398       .  S
Zr476       O483   2.390       .  S
Zr477       O479   2.435       .  S
Zr477       O501   2.440       .  S
Zr477       O503   2.436       .  S
Zr477       O481   2.383       .  S
Zr477       O484   2.395       .  S
Zr478       O504   2.435       .  S
Zr478       O505   2.436       .  S
Zr478       O480   2.436       .  S
Zr478       O481   2.387       .  S
Zr478       O482   2.404       .  S
O479        H516   0.990       .  S
O480        H511   0.990       .  S
O480        H525   0.990       .  S
O482        H508   0.966       .  S
O483       Zr493   2.374       .  S
O484       Zr493   2.392       .  S
O484        H509   0.966       .  S
C485       C1022   1.479       .  S
C486        C974   1.475       .  S
C487       C1142   1.484       .  S
O488        H524   0.990       .  S
O489        C491   1.284       .  A
O490        C491   1.280       .  A
C491        C941   1.474       .  S
O492       Zr493   2.439       .  S
O492        H521   0.991       .  S
Zr493       O496   2.438       .  S
Zr493       O497   2.441       .  S
Zr493       O498   2.402       .  S
O494        C499   1.283       .  A
O495        H512   0.990       .  S
O495        H527   0.990       .  S
O496        H513   0.990       .  S
O497        H517   0.990       .  S
O497        H526   0.990       .  S
O498        C499   1.277       .  A
C499        C998   1.468       .  S
O500        H519   0.991       .  S
O500        H523   0.990       .  S
O501        H515   0.990       .  S
O501        H522   0.990       .  S
O502        C506   1.283       .  A
O503        C506   1.285       .  A
O504        H514   0.990       .  S
O505        H518   0.990       .  S
C506       C1238   1.481       .  S
Zr529       O530   2.440       .  S
Zr529       O531   2.412       .  S
Zr529       O532   2.440       .  S
Zr529       O535   2.428       .  S
Zr529       O537   2.375       .  S
Zr529       O538   2.387       .  S
Zr529       O539   2.403       .  S
Zr529       O540   2.395       .  S
O530        H586   0.991       .  S
O530        H594   0.990       .  S
O531        C551   1.280       .  A
O532        C553   1.285       .  A
O533       Zr543   2.435       .  S
O533        C552   1.285       .  A
O534       Zr542   2.423       .  S
O534        C553   1.283       .  A
O535        C552   1.285       .  A
O536       Zr544   2.436       .  S
O536        C551   1.284       .  A
O537       Zr542   2.393       .  S
O537       Zr544   2.368       .  S
O538       Zr543   2.393       .  S
O538       Zr544   2.376       .  S
O538        H573   0.965       .  S
O539       Zr542   2.401       .  S
O539       Zr559   2.402       .  S
O539        H576   0.966       .  S
O540       Zr543   2.386       .  S
O540       Zr559   2.377       .  S
Zr541       O566   2.446       .  S
Zr541       O560   2.447       .  S
Zr541       O568   2.443       .  S
Zr541       O556   2.412       .  S
Zr541       O547   2.400       .  S
Zr541       O548   2.419       .  S
Zr541       O549   2.378       .  S
Zr541       O550   2.382       .  S
Zr542       O561   2.435       .  S
Zr542       O554   2.434       .  S
Zr542       O555   2.434       .  S
Zr542       O548   2.397       .  S
Zr542       O549   2.383       .  S
Zr543       O545   2.435       .  S
Zr543       O567   2.436       .  S
Zr543       O569   2.423       .  S
Zr543       O547   2.392       .  S
Zr543       O550   2.394       .  S
Zr544       O570   2.434       .  S
Zr544       O571   2.436       .  S
Zr544       O546   2.437       .  S
Zr544       O547   2.397       .  S
Zr544       O548   2.402       .  S
O545        H582   0.990       .  S
O546        H577   0.990   1_455  S
O546        H591   0.990       .  S
O548        H574   0.965       .  S
O549       Zr559   2.381       .  S
O550       Zr559   2.391       .  S
O550        H575   0.965       .  S
C551        C902   1.477   1_455  S
C552       C1109   1.478       .  S
C553        C878   1.480       .  S
O554        H590   0.990       .  S
O555        C557   1.284       .  A
O556        C557   1.279       .  A
C557       C1085   1.469       .  S
O558       Zr559   2.436       .  S
O558        H587   0.990       .  S
Zr559       O562   2.434       .  S
Zr559       O563   2.441       .  S
Zr559       O564   2.400       .  S
O560        C565   1.285       .  A
O561        H578   0.990       .  S
O561        H593   0.989       .  S
O562        H579   0.991       .  S
O563        H583   0.990       .  S
O563        H592   0.990       .  S
O564        C565   1.278       .  A
C565        C917   1.472       .  S
O566        H585   0.990       .  S
O566        H589   0.990       .  S
O567        H581   0.990       .  S
O567        H588   0.989       .  S
O568        C572   1.284       .  A
O569        C572   1.282       .  A
O570        H580   0.990       .  S
O571        H584   0.990       .  S
C572       C1373   1.481       .  S
Zr595       O596   2.440       .  S
Zr595       O597   2.428       .  S
Zr595       O598   2.438       .  S
Zr595       O601   2.424       .  S
Zr595       O603   2.381       .  S
Zr595       O604   2.385       .  S
Zr595       O605   2.400       .  S
Zr595       O606   2.398       .  S
O596        H652   0.990       .  S
O596        H660   0.990       .  S
O597        C617   1.282       .  A
O598        C619   1.285       .  A
O599       Zr609   2.427       .  S
O599        C618   1.283       .  A
O600       Zr608   2.433       .  S
O600        C619   1.284       .  A
O601        C618   1.283       .  A
O602       Zr610   2.423       .  S
O602        C617   1.282       .  A
O603       Zr608   2.399       .  S
O603       Zr610   2.376       .  S
O604       Zr609   2.392       .  S
O604       Zr610   2.381       .  S
O604        H639   0.966       .  S
O605       Zr608   2.401       .  S
O605       Zr625   2.397       .  S
O605        H642   0.966       .  S
O606       Zr609   2.392       .  S
O606       Zr625   2.387       .  S
Zr607       O632   2.442       .  S
Zr607       O626   2.439       .  S
Zr607       O634   2.438       .  S
Zr607       O622   2.419       .  S
Zr607       O613   2.390       .  S
Zr607       O614   2.413       .  S
Zr607       O615   2.379       .  S
Zr607       O616   2.382       .  S
Zr608       O627   2.435       .  S
Zr608       O620   2.434       .  S
Zr608       O621   2.432       .  S
Zr608       O614   2.405       .  S
Zr608       O615   2.390       .  S
Zr609       O611   2.437       .  S
Zr609       O633   2.439       .  S
Zr609       O635   2.429       .  S
Zr609       O613   2.384       .  S
Zr609       O616   2.394       .  S
Zr610       O636   2.435       .  S
Zr610       O637   2.436       .  S
Zr610       O612   2.437       .  S
Zr610       O613   2.385       .  S
Zr610       O614   2.402       .  S
O611        H648   0.990       .  S
O612        H643   0.990   1_655  S
O612        H657   0.990       .  S
O614        H640   0.965       .  S
O615       Zr625   2.373       .  S
O616       Zr625   2.389       .  S
O616        H641   0.964       .  S
C617        C965   1.478   1_655  S
C618        C830   1.469       .  S
C619        C869   1.485       .  S
O620        H656   0.990       .  S
O621        C623   1.284       .  A
O622        C623   1.280       .  A
C623        C854   1.470       .  S
O624       Zr625   2.434       .  S
O624        H653   0.990       .  S
Zr625       O628   2.438       .  S
Zr625       O629   2.437       .  S
Zr625       O630   2.406       .  S
O626        C631   1.284       .  A
O627        H644   0.990       .  S
O627        H659   0.989       .  S
O628        H645   0.990       .  S
O629        H649   0.990       .  S
O629        H658   0.990       .  S
O630        C631   1.278       .  A
C631        C950   1.475       .  S
O632        H651   0.991       .  S
O632        H655   0.990       .  S
O633        H647   0.990       .  S
O633        H654   0.990       .  S
O634        C638   1.286       .  A
O635        C638   1.284       .  A
O636        H646   0.990       .  S
O637        H650   0.990       .  S
C638       C1406   1.486       .  S
Zr661       O662   2.439       .  S
Zr661       O663   2.412       .  S
Zr661       O664   2.431       .  S
Zr661       O667   2.420       .  S
Zr661       O669   2.378       .  S
Zr661       O670   2.386       .  S
Zr661       O671   2.396       .  S
Zr661       O672   2.394       .  S
O662        H718   0.990       .  S
O662        H726   0.990       .  S
O663        C683   1.280       .  A
O664        C685   1.284       .  A
O665       Zr675   2.435       .  S
O665        C684   1.285       .  A
O666       Zr674   2.441       .  S
O666        C685   1.286       .  A
O667        C684   1.283       .  A
O668       Zr676   2.431       .  S
O668        C683   1.284       .  A
O669       Zr674   2.392       .  S
O669       Zr676   2.368       .  S
O670       Zr675   2.390       .  S
O670       Zr676   2.378       .  S
O670        H705   0.966       .  S
O671       Zr674   2.399       .  S
O671       Zr691   2.392       .  S
O671        H708   0.966       .  S
O672       Zr675   2.393       .  S
O672       Zr691   2.380       .  S
Zr673       O698   2.443       .  S
Zr673       O692   2.451       .  S
Zr673       O700   2.452       .  S
Zr673       O688   2.408       .  S
Zr673       O679   2.392       .  S
Zr673       O680   2.417       .  S
Zr673       O681   2.381       .  S
Zr673       O682   2.381       .  S
Zr674       O693   2.435       .  S
Zr674       O686   2.435       .  S
Zr674       O687   2.438       .  S
Zr674       O680   2.402       .  S
Zr674       O681   2.391       .  S
Zr675       O677   2.437       .  S
Zr675       O699   2.439       .  S
Zr675       O701   2.449       .  S
Zr675       O679   2.389       .  S
Zr675       O682   2.392       .  S
Zr676       O702   2.434       .  S
Zr676       O703   2.436       .  S
Zr676       O678   2.437       .  S
Zr676       O679   2.391       .  S
Zr676       O680   2.407       .  S
O677        H714   0.990       .  S
O678        H709   0.990       .  S
O678        H723   0.990       .  S
O680        H706   0.966       .  S
O681       Zr691   2.373       .  S
O682       Zr691   2.397       .  S
O682        H707   0.965       .  S
C683       C1037   1.473       .  S
C684        C893   1.474       .  S
C685        C806   1.480       .  S
O686        H722   0.990       .  S
O687        C689   1.285       .  A
O688        C689   1.280       .  A
C689        C926   1.476       .  S
O690       Zr691   2.439       .  S
O690        H719   0.990       .  S
Zr691       O694   2.439       .  S
Zr691       O695   2.439       .  S
Zr691       O696   2.398       .  S
O692        C697   1.286       .  A
O693        H710   0.990       .  S
O693        H725   0.989       .  S
O694        H711   0.990       .  S
O695        H715   0.990       .  S
O695        H724   0.990       .  S
O696        C697   1.278       .  A
C697       C1070   1.474       .  S
O698        H717   0.990       .  S
O698        H721   0.990       .  S
O699        H713   0.990       .  S
O699        H720   0.990       .  S
O700        C704   1.286       .  A
O701        C704   1.287       .  A
O702        H712   0.990       .  S
O703        H716   0.990       .  S
C704       C1526   1.490       .  S
Zr727       O728   2.439       .  S
Zr727       O729   2.419       .  S
Zr727       O730   2.444       .  S
Zr727       O733   2.421       .  S
Zr727       O735   2.375       .  S
Zr727       O736   2.387       .  S
Zr727       O737   2.401       .  S
Zr727       O738   2.399       .  S
O728        H784   0.990       .  S
O728        H792   0.990       .  S
O729        C749   1.281       .  A
O730        C751   1.287       .  A
O731       Zr741   2.431       .  S
O731        C750   1.284       .  A
O732       Zr740   2.432       .  S
O732        C751   1.284       .  A
O733        C750   1.284       .  A
O734       Zr742   2.433       .  S
O734        C749   1.284       .  A
O735       Zr740   2.393       .  S
O735       Zr742   2.371       .  S
O736       Zr741   2.391       .  S
O736       Zr742   2.374       .  S
O736        H771   0.966       .  S
O737       Zr740   2.399       .  S
O737       Zr757   2.399       .  S
O737        H774   0.966       .  S
O738       Zr741   2.392       .  S
O738       Zr757   2.386       .  S
Zr739       O764   2.442       .  S
Zr739       O758   2.436       .  S
Zr739       O766   2.430       .  S
Zr739       O754   2.418       .  S
Zr739       O745   2.393       .  S
Zr739       O746   2.411       .  S
Zr739       O747   2.379       .  S
Zr739       O748   2.380       .  S
Zr740       O759   2.436       .  S
Zr740       O752   2.433       .  S
Zr740       O753   2.432       .  S
Zr740       O746   2.402       .  S
Zr740       O747   2.388       .  S
Zr741       O743   2.435       .  S
Zr741       O765   2.437       .  S
Zr741       O767   2.434       .  S
Zr741       O745   2.386       .  S
Zr741       O748   2.388       .  S
Zr742       O768   2.435       .  S
Zr742       O769   2.436       .  S
Zr742       O744   2.436       .  S
Zr742       O745   2.391       .  S
Zr742       O746   2.405       .  S
O743        H780   0.990       .  S
O744        H775   0.990   1_545  S
O744        H789   0.990       .  S
O746        H772   0.966       .  S
O747       Zr757   2.376       .  S
O748       Zr757   2.391       .  S
O748        H773   0.966       .  S
C749        C821   1.481   1_545  S
C750       C1013   1.474       .  S
C751        C797   1.490       .  S
O752        H788   0.990       .  S
O753        C755   1.284       .  A
O754        C755   1.280       .  A
C755        C989   1.481       .  S
O756       Zr757   2.436       .  S
O756        H785   0.990       .  S
Zr757       O760   2.435       .  S
Zr757       O761   2.440       .  S
Zr757       O762   2.406       .  S
O758        C763   1.283       .  A
O759        H776   0.990       .  S
O759        H791   0.989       .  S
O760        H777   0.990       .  S
O761        H781   0.990       .  S
O761        H790   0.989       .  S
O762        C763   1.279       .  A
C763        C845   1.467       .  S
O764        H783   0.990       .  S
O764        H787   0.990       .  S
O765        H779   0.990       .  S
O765        H786   0.989       .  S
O766        C770   1.284       .  A
O767        C770   1.284       .  A
O768        H778   0.990       .  S
O769        H782   0.990       .  S
C770       C1157   1.486       .  S
C793        C794   1.401   1_545  A
C793        C798   1.401       .  A
C793        H803   1.084       .  S
C794        C799   1.481   1_556  S
C794        C795   1.411       .  A
C795        C796   1.402   1_565  A
C795        S800   1.804       .  S
C796        C797   1.408       .  A
C796        H801   1.084       .  S
C797        C798   1.419       .  A
C798        S802   1.801       .  S
C799        C804   1.409       .  A
C799        C808   1.402       .  A
S800        H816   1.405       .  S
S802        H813   1.406       .  S
C804        C805   1.403       .  A
C804        S809   1.806   1_565  S
C805        C806   1.405       .  A
C805        H810   1.083       .  S
C806        C807   1.414       .  A
C807        C808   1.401       .  A
C807        S811   1.802       .  S
C808        H812   1.084   1_554  S
S809        H814   1.407       .  S
S811        H815   1.407       .  S
C817        C818   1.399       .  A
C817        C822   1.396       .  A
C817        H827   1.084       .  S
C818        C823   1.475       .  S
C818        C819   1.412       .  A
C819        C820   1.400       .  A
C819        S824   1.805       .  S
C820        C821   1.406       .  A
C820        H825   1.084       .  S
C821        C822   1.419       .  A
C822        S826   1.803   1_565  S
C823        C828   1.409       .  A
C823        C832   1.401       .  A
S824        H840   1.405       .  S
S826        H837   1.406       .  S
C828        C829   1.400       .  A
C828        S833   1.806       .  S
C829        C830   1.403       .  A
C829        H834   1.083       .  S
C830        C831   1.414       .  A
C831        C832   1.398       .  A
C831        S835   1.804       .  S
C832        H836   1.084       .  S
S833        H838   1.407       .  S
S835        H839   1.406       .  S
C841        C842   1.399       .  A
C841        C846   1.395       .  A
C841        H851   1.084       .  S
C842        C847   1.472       .  S
C842        C843   1.413       .  A
C843        C844   1.399       .  A
C843        S848   1.805       .  S
C844        C845   1.401       .  A
C844        H849   1.084       .  S
C845        C846   1.413       .  A
C846        S850   1.804       .  S
C847        C852   1.407       .  A
C847        C856   1.401       .  A
S848        H864   1.404       .  S
S850        H861   1.407       .  S
C852        C853   1.399       .  A
C852        S857   1.807       .  S
C853        C854   1.405       .  A
C853        H858   1.083       .  S
C854        C855   1.412       .  A
C855        C856   1.398       .  A
C855        S859   1.802       .  S
C856        H860   1.084       .  S
S857        H862   1.407       .  S
S859        H863   1.406       .  S
C865        C866   1.402       .  A
C865        C870   1.401       .  A
C865        H875   1.084   1_556  S
C866        C871   1.479   1_656  S
C866        C867   1.410       .  A
C867        C868   1.398       .  A
C867        S872   1.805   1_655  S
C868        C869   1.404       .  A
C868        H873   1.080       .  S
C869        C870   1.415       .  A
C870        S874   1.800       .  S
C871        C876   1.409   1_455  A
C871        C880   1.401       .  A
S872        H888   1.405       .  S
S874        H885   1.407       .  S
C876        C877   1.404   1_655  A
C876        S881   1.806       .  S
C877        C878   1.405       .  A
C877        H882   1.083       .  S
C878        C879   1.415       .  A
C879        C880   1.399       .  A
C879        S883   1.802       .  S
C880        H884   1.084   1_554  S
S881        H886   1.406       .  S
S883        H887   1.407       .  S
C889        C890   1.401       .  A
C889        C894   1.399       .  A
C889        H899   1.084       .  S
C890        C895   1.475       .  S
C890        C891   1.411       .  A
C891        C892   1.397       .  A
C891        S896   1.803       .  S
C892        C893   1.403       .  A
C892        H897   1.084       .  S
C893        C894   1.415       .  A
C894        S898   1.803       .  S
C895        C900   1.409       .  A
C895        C904   1.399       .  A
S896        H912   1.406       .  S
S898        H909   1.407       .  S
C900        C901   1.403       .  A
C900        S905   1.806       .  S
C901        C902   1.405       .  A
C901        H906   1.083       .  S
C902        C903   1.417       .  A
C903        C904   1.396       .  A
C903        S907   1.804   1_655  S
C904        H908   1.084       .  S
S905        H910   1.407       .  S
S907        H911   1.405       .  S
C913        C914   1.399       .  A
C913        C918   1.397       .  A
C913        H923   1.084       .  S
C914        C919   1.474       .  S
C914        C915   1.414       .  A
C915        C916   1.399       .  A
C915        S920   1.805       .  S
C916        C917   1.401       .  A
C916        H921   1.084       .  S
C917        C918   1.415       .  A
C918        S922   1.805       .  S
C919        C924   1.405       .  A
C919        C928   1.403       .  A
S920        H936   1.405       .  S
S922        H933   1.407       .  S
C924        C925   1.398       .  A
C924        S929   1.807       .  S
C925        C926   1.407       .  A
C925        H930   1.083       .  S
C926        C927   1.412       .  A
C927        C928   1.401       .  A
C927        S931   1.801       .  S
C928        H932   1.084       .  S
S929        H934   1.407       .  S
S931        H935   1.407       .  S
C937        C938   1.400       .  A
C937        C942   1.401       .  A
C937        H947   1.083       .  S
C938        C943   1.475       .  S
C938        C939   1.412       .  A
C939        C940   1.399       .  A
C939        S944   1.805       .  S
C940        C941   1.403       .  A
C940        H945   1.084       .  S
C941        C942   1.415       .  A
C942        S946   1.809       .  S
C943        C948   1.406       .  A
C943        C952   1.403       .  A
S944        H960   1.405       .  S
S946        H957   1.406       .  S
C948        C949   1.398       .  A
C948        S953   1.807       .  S
C949        C950   1.406       .  A
C949        H954   1.083       .  S
C950        C951   1.413       .  A
C951        C952   1.400       .  A
C951        S955   1.803       .  S
C952        H956   1.084       .  S
S953        H958   1.407       .  S
S955        H959   1.407       .  S
C961        C962   1.401       .  A
C961        C966   1.397       .  A
C961        H971   1.084       .  S
C962        C967   1.476       .  S
C962        C963   1.411       .  A
C963        C964   1.399       .  A
C963        S968   1.804       .  S
C964        C965   1.405       .  A
C964        H969   1.084       .  S
C965        C966   1.414       .  A
C966        S970   1.800       .  S
C967        C972   1.409       .  A
C967        C976   1.399       .  A
S968        H984   1.405       .  S
S970        H981   1.407       .  S
C972        C973   1.404   1_565  A
C972        S977   1.806       .  S
C973        C974   1.405       .  A
C973        H978   1.083       .  S
C974        C975   1.415   1_545  A
C975        C976   1.397       .  A
C975        S979   1.805       .  S
C976        H980   1.084       .  S
S977        H982   1.406   1_565  S
S979        H983   1.407   1_565  S
C985        C986   1.401       .  A
C985        C990   1.400       .  A
C985        H995   1.084       .  S
C986        C991   1.472       .  S
C986        C987   1.408       .  A
C987        C988   1.395       .  A
C987        S992   1.806       .  S
C988        C989   1.408       .  A
C988        H993   1.084       .  S
C989        C990   1.416       .  A
C990        S994   1.801       .  S
C991        C996   1.409       .  A
C991       C1000   1.398       .  A
S992       H1008   1.405       .  S
S994       H1005   1.407       .  S
C996        C997   1.402       .  A
C996       S1001   1.806       .  S
C997        C998   1.402       .  A
C997       H1002   1.083       .  S
C998        C999   1.414       .  A
C999       C1000   1.394       .  A
C999       S1003   1.805       .  S
C1000      H1004   1.084       .  S
S1001      H1006   1.407       .  S
S1003      H1007   1.406       .  S
C1009      C1010   1.399       .  A
C1009      C1014   1.397       .  A
C1009      H1019   1.084       .  S
C1010      C1015   1.468       .  S
C1010      C1011   1.409       .  A
C1011      C1012   1.396       .  A
C1011      S1016   1.805       .  S
C1012      C1013   1.405   1_455  A
C1012      H1017   1.084   1_455  S
C1013      C1014   1.415   1_655  A
C1014      S1018   1.801   1_455  S
C1015      C1020   1.404       .  A
C1015      C1024   1.399       .  A
S1016      H1032   1.404       .  S
S1018      H1029   1.406       .  S
C1020      C1021   1.397       .  A
C1020      S1025   1.808       .  S
C1021      C1022   1.409       .  A
C1021      H1026   1.083       .  S
C1022      C1023   1.416       .  A
C1023      C1024   1.397       .  A
C1023      S1027   1.801       .  S
C1024      H1028   1.084       .  S
S1025      H1030   1.406       .  S
S1027      H1031   1.407       .  S
C1033      C1034   1.400       .  A
C1033      C1038   1.396   1_545  A
C1033      H1043   1.084       .  S
C1034      C1039   1.473       .  S
C1034      C1035   1.411       .  A
C1035      C1036   1.397       .  A
C1035      S1040   1.805       .  S
C1036      C1037   1.403   1_545  A
C1036      H1041   1.084       .  S
C1037      C1038   1.417       .  A
C1038      S1042   1.805       .  S
C1039      C1044   1.408       .  A
C1039      C1048   1.400       .  A
S1040      H1056   1.404       .  S
S1042      H1053   1.406       .  S
C1044      C1045   1.400   1_655  A
C1044      S1049   1.807       .  S
C1045      C1046   1.404       .  A
C1045      H1050   1.083       .  S
C1046      C1047   1.415   1_455  A
C1047      C1048   1.398       .  A
C1047      S1051   1.803   1_655  S
C1048      H1052   1.084       .  S
S1049      H1054   1.406       .  S
S1051      H1055   1.407       .  S
C1057      C1058   1.397       .  A
C1057      C1062   1.396       .  A
C1057      H1067   1.084       .  S
C1058      C1063   1.475       .  S
C1058      C1059   1.413       .  A
C1059      C1060   1.402       .  A
C1059      S1064   1.804       .  S
C1060      C1061   1.403       .  A
C1060      H1065   1.084       .  S
C1061      C1062   1.416       .  A
C1062      S1066   1.801       .  S
C1063      C1068   1.405       .  A
C1063      C1072   1.404       .  A
S1064      H1080   1.404       .  S
S1066      H1077   1.406       .  S
C1068      C1069   1.396       .  A
C1068      S1073   1.808       .  S
C1069      C1070   1.405       .  A
C1069      H1074   1.083       .  S
C1070      C1071   1.413       .  A
C1071      C1072   1.403       .  A
C1071      S1075   1.802       .  S
C1072      H1076   1.084       .  S
S1073      H1078   1.406       .  S
S1075      H1079   1.407       .  S
C1081      C1082   1.398       .  A
C1081      C1086   1.394       .  A
C1081      H1091   1.084       .  S
C1082      C1087   1.468       .  S
C1082      C1083   1.411       .  A
C1083      C1084   1.398       .  A
C1083      S1088   1.805       .  S
C1084      C1085   1.402       .  A
C1084      H1089   1.084       .  S
C1085      C1086   1.414       .  A
C1086      S1090   1.804       .  S
C1087      C1092   1.405       .  A
C1087      C1096   1.395       .  A
S1088      H1104   1.404       .  S
S1090      H1101   1.407       .  S
C1092      C1093   1.400       .  A
C1092      S1097   1.806       .  S
C1093      C1094   1.407       .  A
C1093      H1098   1.080       .  S
C1094      C1095   1.421       .  A
C1095      C1096   1.398       .  A
C1095      S1099   1.810       .  S
C1096      H1100   1.083       .  S
S1097      H1102   1.407       .  S
S1099      H1103   1.407       .  S
C1105      C1106   1.401       .  A
C1105      C1110   1.400   1_545  A
C1105      H1115   1.084       .  S
C1106      C1111   1.476       .  S
C1106      C1107   1.410       .  A
C1107      C1108   1.398   1_545  A
C1107      S1112   1.805       .  S
C1108      C1109   1.405       .  A
C1108      H1113   1.084       .  S
C1109      C1110   1.415       .  A
C1110      S1114   1.802       .  S
C1111      C1116   1.406       .  A
C1111      C1120   1.401       .  A
S1112      H1128   1.404       .  S
S1114      H1125   1.404       .  S
C1116      C1117   1.400       .  A
C1116      S1121   1.807       .  S
C1117      C1118   1.409       .  A
C1117      H1122   1.082       .  S
C1118      C1119   1.417       .  A
C1119      C1120   1.400       .  A
C1119      S1123   1.800       .  S
C1120      H1124   1.084       .  S
S1121      H1126   1.407       .  S
S1123      H1127   1.408       .  S
C1129      C1130   1.402       .  A
C1129      C1134   1.400       .  A
C1129      H1139   1.084       .  S
C1130      C1135   1.479   1_554  S
C1130      C1131   1.412       .  A
C1131      C1132   1.400       .  A
C1131      S1136   1.804   1_554  S
C1132      C1133   1.404       .  A
C1132      H1137   1.084       .  S
C1133      C1134   1.415       .  A
C1134      S1138   1.805       .  S
C1135      C1140   1.407       .  A
C1135      C1144   1.402       .  A
S1136      H1152   1.405       .  S
S1138      H1149   1.407       .  S
C1140      C1141   1.400       .  A
C1140      S1145   1.807   1_556  S
C1141      C1142   1.406       .  A
C1141      H1146   1.083       .  S
C1142      C1143   1.418       .  A
C1143      C1144   1.402       .  A
C1143      S1147   1.804       .  S
C1144      H1148   1.084       .  S
S1145      H1150   1.407   1_554  S
S1147      H1151   1.408       .  S
C1153      C1154   1.403       .  A
C1153      C1158   1.400       .  A
C1153      H1163   1.084       .  S
C1154      C1159   1.482       .  S
C1154      C1155   1.411       .  A
C1155      C1156   1.398       .  A
C1155      S1160   1.804       .  S
C1156      C1157   1.408       .  A
C1156      H1161   1.083       .  S
C1157      C1158   1.416       .  A
C1158      S1162   1.802       .  S
C1159      C1164   1.409       .  A
C1159      C1168   1.405       .  A
S1160      H1176   1.407       .  S
S1162      H1173   1.407       .  S
C1164      C1165   1.399       .  A
C1164      S1169   1.807       .  S
C1165      C1166   1.406       .  A
C1165      H1170   1.083       .  S
C1166      C1167   1.412       .  A
C1167      C1168   1.400       .  A
C1167      S1171   1.802       .  S
C1168      H1172   1.084       .  S
S1169      H1174   1.407       .  S
S1171      H1175   1.407       .  S
C1177      C1178   1.401   1_455  A
C1177      C1182   1.400   1_455  A
C1177      H1187   1.084       .  S
C1178      C1183   1.481   1_655  S
C1178      C1179   1.412       .  A
C1179      C1180   1.401       .  A
C1179      S1184   1.806       .  S
C1180      C1181   1.407       .  A
C1180      H1185   1.084       .  S
C1181      C1182   1.416       .  A
C1182      S1186   1.802   1_655  S
C1183      C1188   1.408       .  A
C1183      C1192   1.401       .  A
S1184      H1200   1.404       .  S
S1186      H1197   1.408       .  S
C1188      C1189   1.404       .  A
C1188      S1193   1.807       .  S
C1189      C1190   1.408       .  A
C1189      H1194   1.083       .  S
C1190      C1191   1.418       .  A
C1191      C1192   1.401       .  A
C1191      S1195   1.804       .  S
C1192      H1196   1.084   1_455  S
S1193      H1198   1.407       .  S
S1195      H1199   1.406       .  S
C1201      C1202   1.403       .  A
C1201      C1206   1.404       .  A
C1201      H1211   1.084       .  S
C1202      C1207   1.482       .  S
C1202      C1203   1.409       .  A
C1203      C1204   1.398       .  A
C1203      S1208   1.805       .  S
C1204      C1205   1.409       .  A
C1204      H1209   1.083       .  S
C1205      C1206   1.418       .  A
C1206      S1210   1.802       .  S
C1207      C1212   1.407       .  A
C1207      C1216   1.403       .  A
S1208      H1224   1.406       .  S
S1210      H1221   1.407       .  S
C1212      C1213   1.402       .  A
C1212      S1217   1.807       .  S
C1213      C1214   1.409       .  A
C1213      H1218   1.083       .  S
C1214      C1215   1.415       .  A
C1215      C1216   1.401       .  A
C1215      S1219   1.802       .  S
C1216      H1220   1.084       .  S
S1217      H1222   1.407       .  S
S1219      H1223   1.407       .  S
C1225      C1226   1.402       .  A
C1225      C1230   1.400       .  A
C1225      H1235   1.084       .  S
C1226      C1231   1.481       .  S
C1226      C1227   1.410       .  A
C1227      C1228   1.398       .  A
C1227      S1232   1.804       .  S
C1228      C1229   1.408       .  A
C1228      H1233   1.083       .  S
C1229      C1230   1.418       .  A
C1230      S1234   1.803       .  S
C1231      C1236   1.407       .  A
C1231      C1240   1.404       .  A
S1232      H1248   1.406       .  S
S1234      H1245   1.408       .  S
C1236      C1237   1.401       .  A
C1236      S1241   1.807       .  S
C1237      C1238   1.408       .  A
C1237      H1242   1.083       .  S
C1238      C1239   1.414       .  A
C1239      C1240   1.400       .  A
C1239      S1243   1.803       .  S
C1240      H1244   1.084       .  S
S1241      H1246   1.407       .  S
S1243      H1247   1.407       .  S
C1249      C1250   1.400       .  A
C1249      C1254   1.397       .  A
C1249      H1259   1.084       .  S
C1250      C1255   1.479       .  S
C1250      C1251   1.413       .  A
C1251      C1252   1.400       .  A
C1251      S1256   1.804       .  S
C1252      C1253   1.403       .  A
C1252      H1257   1.084       .  S
C1253      C1254   1.416       .  A
C1254      S1258   1.804       .  S
C1255      C1260   1.411       .  A
C1255      C1264   1.400       .  A
S1256      H1272   1.405       .  S
S1258      H1269   1.406       .  S
C1260      C1261   1.404       .  A
C1260      S1265   1.806       .  S
C1261      C1262   1.404       .  A
C1261      H1266   1.083       .  S
C1262      C1263   1.415       .  A
C1263      C1264   1.397       .  A
C1263      S1267   1.804       .  S
C1264      H1268   1.084       .  S
S1265      H1270   1.406       .  S
S1267      H1271   1.407       .  S
C1273      C1274   1.403       .  A
C1273      C1278   1.401       .  A
C1273      H1283   1.084       .  S
C1274      C1279   1.487       .  S
C1274      C1275   1.412       .  A
C1275      C1276   1.401       .  A
C1275      S1280   1.804       .  S
C1276      C1277   1.407       .  A
C1276      H1281   1.082       .  S
C1277      C1278   1.418       .  A
C1278      S1282   1.801       .  S
C1279      C1284   1.410       .  A
C1279      C1288   1.405       .  A
S1280      H1296   1.406       .  S
S1282      H1293   1.408   1_455  S
C1284      C1285   1.402       .  A
C1284      S1289   1.807       .  S
C1285      C1286   1.406       .  A
C1285      H1290   1.083       .  S
C1286      C1287   1.414       .  A
C1287      C1288   1.401       .  A
C1287      S1291   1.801       .  S
C1288      H1292   1.084       .  S
S1289      H1294   1.407       .  S
S1291      H1295   1.407       .  S
C1297      C1298   1.401       .  A
C1297      C1302   1.398       .  A
C1297      H1307   1.084   1_565  S
C1298      C1303   1.479       .  S
C1298      C1299   1.412       .  A
C1299      C1300   1.402       .  A
C1299      S1304   1.805       .  S
C1300      C1301   1.406       .  A
C1300      H1305   1.084       .  S
C1301      C1302   1.415       .  A
C1302      S1306   1.803       .  S
C1303      C1308   1.408       .  A
C1303      C1312   1.400   1_565  A
S1304      H1320   1.406       .  S
S1306      H1317   1.407       .  S
C1308      C1309   1.403   1_565  A
C1308      S1313   1.807       .  S
C1309      C1310   1.408       .  A
C1309      H1314   1.083       .  S
C1310      C1311   1.416       .  A
C1311      C1312   1.400       .  A
C1311      S1315   1.800       .  S
C1312      H1316   1.084       .  S
S1313      H1318   1.407       .  S
S1315      H1319   1.407       .  S
C1321      C1322   1.403       .  A
C1321      C1326   1.402       .  A
C1321      H1331   1.084       .  S
C1322      C1327   1.482       .  S
C1322      C1323   1.412       .  A
C1323      C1324   1.401   1_545  A
C1323      S1328   1.806       .  S
C1324      C1325   1.407   1_565  A
C1324      H1329   1.084       .  S
C1325      C1326   1.415       .  A
C1326      S1330   1.801       .  S
C1327      C1332   1.409       .  A
C1327      C1336   1.401       .  A
S1328      H1344   1.405       .  S
S1330      H1341   1.407       .  S
C1332      C1333   1.406       .  A
C1332      S1337   1.806       .  S
C1333      C1334   1.407       .  A
C1333      H1338   1.083       .  S
C1334      C1335   1.415       .  A
C1335      C1336   1.400       .  A
C1335      S1339   1.801       .  S
C1336      H1340   1.084       .  S
S1337      H1342   1.407       .  S
S1339      H1343   1.407       .  S
C1345      C1346   1.401       .  A
C1345      C1350   1.399       .  A
C1345      H1355   1.084       .  S
C1346      C1351   1.479       .  S
C1346      C1347   1.413       .  A
C1347      C1348   1.400       .  A
C1347      S1352   1.804       .  S
C1348      C1349   1.402       .  A
C1348      H1353   1.084       .  S
C1349      C1350   1.416       .  A
C1350      S1354   1.808       .  S
C1351      C1356   1.408       .  A
C1351      C1360   1.402       .  A
S1352      H1368   1.405       .  S
S1354      H1365   1.404       .  S
C1356      C1357   1.403       .  A
C1356      S1361   1.806       .  S
C1357      C1358   1.407       .  A
C1357      H1362   1.083       .  S
C1358      C1359   1.414       .  A
C1359      C1360   1.399       .  A
C1359      S1363   1.802       .  S
C1360      H1364   1.084       .  S
S1361      H1366   1.407       .  S
S1363      H1367   1.406       .  S
C1369      C1370   1.401       .  A
C1369      C1374   1.402       .  A
C1369      H1379   1.083       .  S
C1370      C1375   1.481       .  S
C1370      C1371   1.413       .  A
C1371      C1372   1.399       .  A
C1371      S1376   1.806       .  S
C1372      C1373   1.404       .  A
C1372      H1377   1.084       .  S
C1373      C1374   1.416       .  A
C1374      S1378   1.807       .  S
C1375      C1380   1.408       .  A
C1375      C1384   1.400       .  A
S1376      H1392   1.404       .  S
S1378      H1389   1.407       .  S
C1380      C1381   1.403       .  A
C1380      S1385   1.807       .  S
C1381      C1382   1.409       .  A
C1381      H1386   1.082       .  S
C1382      C1383   1.420       .  A
C1383      C1384   1.400       .  A
C1383      S1387   1.804       .  S
C1384      H1388   1.084       .  S
S1385      H1390   1.407       .  S
S1387      H1391   1.407       .  S
C1393      C1394   1.403       .  A
C1393      C1398   1.402       .  A
C1393      H1403   1.084       .  S
C1394      C1399   1.483       .  S
C1394      C1395   1.410       .  A
C1395      C1396   1.398       .  A
C1395      S1400   1.803       .  S
C1396      C1397   1.407       .  A
C1396      H1401   1.083       .  S
C1397      C1398   1.416       .  A
C1398      S1402   1.803       .  S
C1399      C1404   1.408       .  A
C1399      C1408   1.402       .  A
S1400      H1416   1.407       .  S
S1402      H1413   1.407       .  S
C1404      C1405   1.404       .  A
C1404      S1409   1.806       .  S
C1405      C1406   1.408       .  A
C1405      H1410   1.082       .  S
C1406      C1407   1.417       .  A
C1407      C1408   1.400       .  A
C1407      S1411   1.803       .  S
C1408      H1412   1.084       .  S
S1409      H1414   1.407       .  S
S1411      H1415   1.407       .  S
C1417      C1418   1.403       .  A
C1417      C1422   1.402       .  A
C1417      H1427   1.084       .  S
C1418      C1423   1.479       .  S
C1418      C1419   1.408       .  A
C1419      C1420   1.397       .  A
C1419      S1424   1.804       .  S
C1420      C1421   1.408       .  A
C1420      H1425   1.084       .  S
C1421      C1422   1.415       .  A
C1422      S1426   1.801       .  S
C1423      C1428   1.411       .  A
C1423      C1432   1.399       .  A
S1424      H1440   1.406       .  S
S1426      H1437   1.407       .  S
C1428      C1429   1.403       .  A
C1428      S1433   1.805       .  S
C1429      C1430   1.403       .  A
C1429      H1434   1.083       .  S
C1430      C1431   1.416       .  A
C1431      C1432   1.397       .  A
C1431      S1435   1.805       .  S
C1432      H1436   1.084       .  S
S1433      H1438   1.407       .  S
S1435      H1439   1.407       .  S
C1441      C1442   1.400       .  A
C1441      C1446   1.397   1_455  A
C1441      H1451   1.084       .  S
C1442      C1447   1.471       .  S
C1442      C1443   1.410       .  A
C1443      C1444   1.397       .  A
C1443      S1448   1.805       .  S
C1444      C1445   1.405   1_455  A
C1444      H1449   1.084   1_455  S
C1445      C1446   1.414       .  A
C1446      S1450   1.801       .  S
C1447      C1452   1.404       .  A
C1447      C1456   1.399       .  A
S1448      H1464   1.406       .  S
S1450      H1461   1.405       .  S
C1452      C1453   1.398       .  A
C1452      S1457   1.807       .  S
C1453      C1454   1.410       .  A
C1453      H1458   1.081   1_565  S
C1454      C1455   1.418       .  A
C1455      C1456   1.398       .  A
C1455      S1459   1.800       .  S
C1456      H1460   1.084       .  S
S1457      H1462   1.406       .  S
S1459      H1463   1.407       .  S
C1465      C1466   1.404       .  A
C1465      C1470   1.401       .  A
C1465      H1475   1.084       .  S
C1466      C1471   1.477       .  S
C1466      C1467   1.409       .  A
C1467      C1468   1.397       .  A
C1467      S1472   1.804       .  S
C1468      C1469   1.406       .  A
C1468      H1473   1.084       .  S
C1469      C1470   1.414       .  A
C1470      S1474   1.803       .  S
C1471      C1476   1.410       .  A
C1471      C1480   1.399       .  A
S1472      H1488   1.405       .  S
S1474      H1485   1.406       .  S
C1476      C1477   1.405       .  A
C1476      S1481   1.806       .  S
C1477      C1478   1.402       .  A
C1477      H1482   1.083       .  S
C1478      C1479   1.414       .  A
C1479      C1480   1.397       .  A
C1479      S1483   1.806       .  S
C1480      H1484   1.084       .  S
S1481      H1486   1.407       .  S
S1483      H1487   1.405       .  S
C1489      C1490   1.402       .  A
C1489      C1494   1.402   1_565  A
C1489      H1499   1.084       .  S
C1490      C1495   1.481       .  S
C1490      C1491   1.412       .  A
C1491      C1492   1.399   1_565  A
C1491      S1496   1.804       .  S
C1492      C1493   1.405       .  A
C1492      H1497   1.084       .  S
C1493      C1494   1.416       .  A
C1494      S1498   1.802       .  S
C1495      C1500   1.408       .  A
C1495      C1504   1.400       .  A
S1496      H1512   1.404       .  S
S1498      H1509   1.407       .  S
C1500      C1501   1.403       .  A
C1500      S1505   1.806       .  S
C1501      C1502   1.406       .  A
C1501      H1506   1.083       .  S
C1502      C1503   1.421       .  A
C1503      C1504   1.401       .  A
C1503      S1507   1.803       .  S
C1504      H1508   1.084       .  S
S1505      H1510   1.407       .  S
S1507      H1511   1.406       .  S
C1513      C1514   1.405       .  A
C1513      C1518   1.406       .  A
C1513      H1523   1.084       .  S
C1514      C1519   1.489       .  S
C1514      C1515   1.412       .  A
C1515      C1516   1.398       .  A
C1515      S1520   1.804       .  S
C1516      C1517   1.408       .  A
C1516      H1521   1.084       .  S
C1517      C1518   1.418       .  A
C1518      S1522   1.803       .  S
C1519      C1524   1.412       .  A
C1519      C1528   1.401       .  A
S1520      H1536   1.406       .  S
S1522      H1533   1.408       .  S
C1524      C1525   1.408       .  A
C1524      S1529   1.806       .  S
C1525      C1526   1.405       .  A
C1525      H1530   1.083       .  S
C1526      C1527   1.419       .  A
C1527      C1528   1.402       .  A
C1527      S1531   1.802       .  S
C1528      H1532   1.084       .  S
S1529      H1534   1.406       .  S
S1531      H1535   1.406       .  S
C1537      C1538   1.404       .  A
C1537      C1542   1.400       .  A
C1537      H1547   1.084       .  S
C1538      C1543   1.484       .  S
C1538      C1539   1.413       .  A
C1539      C1540   1.400       .  A
C1539      S1544   1.804       .  S
C1540      C1541   1.405       .  A
C1540      H1545   1.084       .  S
C1541      C1542   1.414       .  A
C1542      S1546   1.803       .  S
C1543      C1548   1.408       .  A
C1543      C1552   1.402       .  A
S1544      H1560   1.405       .  S
S1546      H1557   1.407       .  S
C1548      C1549   1.403       .  A
C1548      S1553   1.807       .  S
C1549      C1550   1.408       .  A
C1549      H1554   1.083       .  S
C1550      C1551   1.417       .  A
C1551      C1552   1.402       .  A
C1551      S1555   1.798       .  S
C1552      H1556   1.084       .  S
S1553      H1558   1.407       .  S
S1555      H1559   1.407       .  S
C1561      C1562   1.401       .  A
C1561      C1566   1.397   1_545  A
C1561      H1571   1.084       .  S
C1562      C1567   1.475       .  S
C1562      C1563   1.411       .  A
C1563      C1564   1.398   1_545  A
C1563      S1568   1.804       .  S
C1564      C1565   1.404       .  A
C1564      H1569   1.084       .  S
C1565      C1566   1.414       .  A
C1566      S1570   1.801       .  S
C1567      C1572   1.407       .  A
C1567      C1576   1.402       .  A
S1568      H1584   1.405       .  S
S1570      H1581   1.407       .  S
C1572      C1573   1.400   1_655  A
C1572      S1577   1.808       .  S
C1573      C1574   1.406   1_455  A
C1573      H1578   1.083       .  S
C1574      C1575   1.413       .  A
C1575      C1576   1.400       .  A
C1575      S1579   1.802       .  S
C1576      H1580   1.084       .  S
S1577      H1582   1.407   1_655  S
S1579      H1583   1.404       .  S
C1585      C1586   1.400       .  A
C1585      C1590   1.396       .  A
C1585      H1595   1.084       .  S
C1586      C1591   1.479       .  S
C1586      C1587   1.414       .  A
C1587      C1588   1.402       .  A
C1587      S1592   1.804       .  S
C1588      C1589   1.403       .  A
C1588      H1593   1.084       .  S
C1589      C1590   1.413       .  A
C1590      S1594   1.805       .  S
C1591      C1596   1.407       .  A
C1591      C1600   1.402       .  A
S1592      H1608   1.406       .  S
S1594      H1605   1.406       .  S
C1596      C1597   1.400       .  A
C1596      S1601   1.807       .  S
C1597      C1598   1.407       .  A
C1597      H1602   1.083       .  S
C1598      C1599   1.415       .  A
C1599      C1600   1.401       .  A
C1599      S1603   1.801       .  S
C1600      H1604   1.084       .  S
S1601      H1606   1.407       .  S
S1603      H1607   1.407       .  S
C1609      C1610   1.401       .  A
C1609      C1614   1.396       .  A
C1609      H1619   1.084       .  S
C1610      C1615   1.474       .  S
C1610      C1611   1.412       .  A
C1611      C1612   1.400   1_655  A
C1611      S1616   1.805       .  S
C1612      C1613   1.403       .  A
C1612      H1617   1.084       .  S
C1613      C1614   1.412   1_455  A
C1614      S1618   1.805       .  S
C1615      C1620   1.407       .  A
C1615      C1624   1.401       .  A
S1616      H1632   1.405       .  S
S1618      H1629   1.407   1_655  S
C1620      C1621   1.399       .  A
C1620      S1625   1.806       .  S
C1621      C1622   1.405       .  A
C1621      H1626   1.083       .  S
C1622      C1623   1.415       .  A
C1623      C1624   1.400       .  A
C1623      S1627   1.805       .  S
C1624      H1628   1.084       .  S
S1625      H1630   1.407       .  S
S1627      H1631   1.407       .  S
C1633      C1634   1.397       .  A
C1633      C1638   1.395       .  A
C1633      H1643   1.084       .  S
C1634      C1639   1.483       .  S
C1634      C1635   1.413       .  A
C1635      C1636   1.402       .  A
C1635      S1640   1.803       .  S
C1636      C1637   1.408       .  A
C1636      H1641   1.083       .  S
C1637      C1638   1.425       .  A
C1638      S1642   1.803       .  S
C1639      C1644   1.413       .  A
C1639      C1648   1.403       .  A
S1640      H1656   1.406       .  S
S1642      H1653   1.401       .  S
C1644      C1645   1.402       .  A
C1644      S1649   1.808       .  S
C1645      C1646   1.401       .  A
C1645      H1650   1.083       .  S
C1646      C1647   1.411       .  A
C1647      C1648   1.399       .  A
C1647      S1651   1.804       .  S
C1648      H1652   1.084       .  S
S1649      H1654   1.407       .  S
S1651      H1655   1.406       .  S
