geometry optimzed in LAMMPS
_audit_creation_date              2020-12-01 
_audit_creation_method            'lammps2cif' 
_symmetry_space_group_name_H-M    'P1' 
_symmetry_Int_Tables_number       1 
_symmetry_cell_setting            triclinic 
loop_ 
_symmetry_equiv_pos_as_xyz 
  x,y,z 
_cell_length_a                    33.41067678 
_cell_length_b                    33.39605747169111 
_cell_length_c                    71.49633468731814 
_cell_angle_alpha                 90.86770392123995 
_cell_angle_beta                  89.06299144065885 
_cell_angle_gamma                 120.26165503870799 
loop_ 
_atom_site_label 
_atom_site_type_symbol 
_atom_site_fract_x 
_atom_site_fract_y 
_atom_site_fract_z 
_atom_site_charge 
O1          O  0.97211711  0.34032989  0.49816412    -0.81100
O2          O  0.75874016  0.27268474  0.50138481    -0.65800
O3          O  0.87825882  0.28612018  0.50871577    -1.12400
C4          C  0.85380802  0.22500639  0.44626251     1.05800
O5          O  0.73411649  0.20321407  0.48953116    -0.79000
O6          O  0.78314911  0.16432457  0.47869370    -0.66600
Ni7        Ni  0.92919070  0.34547430  0.51513184     1.34900
C8          C  0.81184005  0.16354702  0.48983366     0.84500
O9          O  0.81737021  0.30092061  0.53094622    -0.79500
O10         O  0.89236149  0.35642698  0.53347525    -0.89800
C11         C  0.72599059  0.23457927  0.49509194     0.84100
O12         O  0.91886163  0.38029991  0.49683271    -0.68000
O13         O  0.81263584  0.21783742  0.44769648    -0.87300
C14         C  0.88133642  0.38033537  0.49471314     0.84900
C15         C  0.85044409  0.33563842  0.53939491     1.06500
H16         H  0.83378258  0.29007328  0.47246858     0.38300
O17         O  0.82569601  0.26406732  0.48053540    -1.10000
O18         O  0.84991108  0.19969521  0.49437221    -0.66600
Ni19       Ni  0.88105499  0.26254758  0.48443945     1.26300
O20         O  0.84201142  0.34474058  0.49798206    -0.66800
O21         O  0.88264827  0.23963388  0.45968577    -0.79100
C22         C  0.97483900  0.30607916  0.49153476     0.84300
O23         O  0.93912468  0.26644505  0.48909890    -0.66300
Ni24       Ni  0.77490815  0.21227118  0.46893488     1.27400
Ni25       Ni  0.81940437  0.28159725  0.50560372     1.26100
H26         H  0.87530209  0.26443543  0.51819510     0.38800
O27         O  0.00518894  0.29795689  0.32616179    -0.81100
O28         O  0.92659208  0.08609032  0.31151665    -0.65800
O29         O  0.94792498  0.20950619  0.31075045    -1.12400
C30         C  0.89059208  0.17281608  0.37362058     1.05800
O31         O  0.85927825  0.06199927  0.32528731    -0.79000
O32         O  0.82612575  0.11246068  0.34103332    -0.66600
Ni33       Ni  0.00843891  0.25996666  0.30596766     1.34900
C34         C  0.82625050  0.14306679  0.33070232     0.84500
O35         O  0.95812445  0.15258216  0.28465300    -0.79500
O36         O  0.01609863  0.22719428  0.28492425    -0.89800
C37         C  0.88878400  0.05322801  0.31796340     0.84100
O38         O  0.04185513  0.24105206  0.32161462    -0.68000
O39         O  0.88400816  0.13235799  0.37047604    -0.87300
C40         C  0.03802444  0.20124177  0.32166448     0.84900
C41         C  0.99387343  0.18701716  0.27720575     1.06500
H42         H  0.95083793  0.15562796  0.34376602     0.38300
O43         O  0.92448621  0.15009700  0.33643727    -1.10000
O44         O  0.86307039  0.18006170  0.32597232    -0.66600
Ni45       Ni  0.92533952  0.20715895  0.33560891     1.26300
O46         O  0.00120230  0.16489119  0.31689771    -0.66800
O47         O  0.90321477  0.20367294  0.36096906    -0.79100
C48         C  0.97040747  0.30171628  0.33126830     0.84300
O49         O  0.93055307  0.26631631  0.33344708    -0.66300
Ni50       Ni  0.87285314  0.09850643  0.34759109     1.27400
Ni51       Ni  0.93940109  0.14872317  0.31049803     1.26100
H52         H  0.92707229  0.21073545  0.30185718     0.38800
O53         O  0.76514886  0.73670234  0.32653951    -0.81100
O54         O  0.97610075  0.87343936  0.31431401    -0.65800
O55         O  0.85381725  0.76914724  0.31117835    -1.12400
C56         C  0.88236555  0.74568483  0.37426131     1.05800
O57         O  0.00095542  0.83243882  0.32893105    -0.79000
O58         O  0.95005958  0.74690782  0.34215936    -0.66600
Ni59       Ni  0.80272068  0.77760941  0.30650416     1.34900
C60         C  0.92163137  0.71656931  0.33089445     0.84500
O61         O  0.91149077  0.83925128  0.28645167    -0.79500
O62         O  0.83568469  0.81807650  0.28591172    -0.89800
C63         C  0.00880112  0.86980347  0.32136342     0.84100
O64         O  0.81983962  0.83097081  0.32210636    -0.68000
O65         O  0.92337015  0.77984656  0.37221971    -0.87300
C66         C  0.85939216  0.86748485  0.32200178     0.84900
C67         C  0.87679432  0.83959991  0.27900285     1.06500
H68         H  0.90292968  0.82469095  0.34541467     0.38300
O69         O  0.91018259  0.80478344  0.33792990    -1.10000
O70         O  0.88406904  0.71445282  0.32592058    -0.66600
Ni71       Ni  0.85402176  0.74747127  0.33565379     1.26300
O72         O  0.89642232  0.86677123  0.31899074    -0.66800
O73         O  0.85426954  0.72722008  0.36070561    -0.79100
C74         C  0.76061099  0.69740591  0.33029005     0.84300
O75         O  0.79575589  0.69276284  0.33200664    -0.66300
Ni76       Ni  0.96066578  0.80604670  0.35015487     1.27400
Ni77       Ni  0.91394371  0.82245142  0.31214692     1.26100
H78         H  0.85384965  0.74779817  0.30191174     0.38800
O79         O  0.73184542  0.66220974  0.49909403    -0.81100
O80         O  0.80792371  0.52289823  0.50204916    -0.65800
O81         O  0.78847825  0.62616998  0.51013543    -1.12400
C82         C  0.84179540  0.65792621  0.44656435     1.05800
O83         O  0.87562618  0.57115992  0.48930338    -0.79000
O84         O  0.90934841  0.65713618  0.47746070    -0.66600
Ni85       Ni  0.72925561  0.61718796  0.51684833     1.34900
C86         C  0.90953995  0.68483898  0.48980424     0.84500
O87         O  0.77622522  0.55214528  0.53243267    -0.79500
O88         O  0.72201652  0.57335112  0.53567971    -0.89800
C89         C  0.84644809  0.53089272  0.49478665     0.84100
O90         O  0.69265954  0.56677635  0.50007112    -0.68000
O91         O  0.85077417  0.62525870  0.44772672    -0.87300
C92         C  0.69511887  0.53025819  0.49762520     0.84900
C93         C  0.74196942  0.55156010  0.54121025     1.06500
H94         H  0.78394841  0.57594087  0.47391236     0.38300
O95         O  0.81040705  0.59520024  0.48161987    -1.10000
O96         O  0.87300876  0.68472772  0.49529720    -0.66600
Ni97       Ni  0.81030237  0.65133605  0.48579011     1.26300
O98         O  0.73238018  0.52961284  0.50002323    -0.66800
O99         O  0.83093886  0.67445652  0.46074755    -0.79100
C100        C  0.76641040  0.70078506  0.49384660     0.84300
O101        O  0.80600901  0.70522064  0.49106884    -0.66300
Ni102      Ni  0.86198484  0.59807295  0.46884448     1.27400
Ni103      Ni  0.79530449  0.57289631  0.50688290     1.26100
H104        H  0.81018077  0.64626442  0.51947240     0.38800
O105        O  0.32792833  0.06004827  0.32128325    -0.81100
O106        O  0.18897442  0.13452639  0.31530357    -0.65800
O107        O  0.29438034  0.11856078  0.30999163    -1.12400
C108        C  0.31750080  0.16827643  0.37393409     1.05800
O109        O  0.23014697  0.20061077  0.33047084    -0.79000
O110        O  0.31576854  0.23488475  0.34291237    -0.66600
Ni111      Ni  0.28601798  0.05986838  0.30261161     1.34900
C112        C  0.34707860  0.23703656  0.33200983     0.84500
O113        O  0.22539994  0.11020831  0.28609056    -0.79500
O114        O  0.24488802  0.05488661  0.28287242    -0.89800
C115        C  0.19314222  0.17147738  0.32244840     0.84100
O116        O  0.23359398  0.02184895  0.31831126    -0.68000
O117        O  0.28386255  0.17566028  0.37230624    -0.87300
C118        C  0.19670729  0.02382649  0.31960811     0.84900
C119        C  0.22461982  0.07628731  0.27718227     1.06500
H120        H  0.23736724  0.10897281  0.34485326     0.38300
O121        O  0.25784525  0.13655199  0.33785849    -1.10000
O122        O  0.34943561  0.20155207  0.32671917    -0.66600
Ni123      Ni  0.31504451  0.13737303  0.33496888     1.26300
O124        O  0.19667014  0.06135497  0.31721341    -0.66800
O125        O  0.33437188  0.15590339  0.36041540    -0.79100
C126        C  0.36579797  0.09388277  0.32740607     0.84300
O127        O  0.36971398  0.13317235  0.33089775    -0.66300
Ni128      Ni  0.25693475  0.18610069  0.35089446     1.27400
Ni129      Ni  0.24075068  0.12484919  0.31202747     1.26100
H130        H  0.31599530  0.14139333  0.30130075     0.38800
O131        O  0.40626153  0.10118124  0.49208115    -0.81100
O132        O  0.54273859  0.31329341  0.50304894    -0.65800
O133        O  0.43951596  0.18996372  0.50716279    -1.12400
C134        C  0.40915717  0.22121901  0.44544551     1.05800
O135        O  0.49739441  0.33621392  0.49113136    -0.79000
O136        O  0.41177915  0.28475374  0.47824155    -0.66600
Ni137      Ni  0.44925465  0.13960420  0.51131211     1.34900
C138        C  0.38268177  0.25564094  0.48968312     0.84500
O139        O  0.51084490  0.24872145  0.53091296    -0.79500
O140        O  0.49153303  0.17340371  0.53126576    -0.89800
C141        C  0.53634223  0.34557537  0.49740489     0.84100
O142        O  0.50050361  0.15718143  0.49442171    -0.68000
O143        O  0.44450597  0.26142223  0.44748200    -0.87300
C144        C  0.53720605  0.19653922  0.49403274     0.84900
C145        C  0.51184727  0.21439060  0.53827118     1.06500
H146        H  0.49161448  0.24028437  0.47235442     0.38300
O147        O  0.47207028  0.24676192  0.48044465    -1.10000
O148        O  0.38258021  0.21894521  0.49446438    -0.66600
Ni149      Ni  0.41519295  0.19004554  0.48323384     1.26300
O150        O  0.53680612  0.23347894  0.49792624    -0.66800
O151        O  0.39235036  0.19160508  0.45868760    -0.79100
C152        C  0.36622035  0.09570758  0.48915949     0.84300
O153        O  0.36099582  0.13062258  0.48730759    -0.66300
Ni154      Ni  0.47112707  0.29752551  0.46956261     1.27400
Ni155      Ni  0.49236889  0.25057984  0.50569132     1.26100
H156        H  0.41900574  0.18973975  0.51690592     0.38800
O157        O  0.10104589  0.41631058  0.99143702    -0.81100
O158        O  0.31062281  0.55527705  0.98166016    -0.65800
O159        O  0.19005446  0.45015483  0.97656073    -1.12400
C160        C  0.21800002  0.42185770  0.03877816     1.05800
O161        O  0.33625277  0.51250731  0.99374891    -0.79000
O162        O  0.28599102  0.42510156  0.00556029    -0.66600
Ni163      Ni  0.13856457  0.45752091  0.97159087     1.34900
C164        C  0.25645255  0.39492606  0.99454537     0.84500
O165        O  0.24835363  0.52302263  0.95327286    -0.79500
O166        O  0.17188717  0.49843124  0.95126677    -0.89800
C167        C  0.34399102  0.55108373  0.98742198     0.84100
O168        O  0.15329810  0.51015471  0.98719427    -0.68000
O169        O  0.25965773  0.45481965  0.03676071    -0.87300
C170        C  0.19252312  0.54643930  0.98936657     0.84900
C171        C  0.21357915  0.52121820  0.94506571     1.06500
H172        H  0.23829394  0.50243263  0.01181219     0.38300
O173        O  0.24546181  0.48345055  0.00371384    -1.10000
O174        O  0.21895597  0.39356982  0.99014576    -0.66600
Ni175      Ni  0.18944477  0.42637385  0.00062882     1.26300
O176        O  0.23033145  0.54701819  0.98654068    -0.66800
O177        O  0.18942371  0.40463304  0.02531461    -0.79100
C178        C  0.09607358  0.37675802  0.99501673     0.84300
O179        O  0.13108365  0.37181779  0.99651066    -0.66300
Ni180      Ni  0.29647383  0.48338236  0.01488349     1.27400
Ni181      Ni  0.24944374  0.50407484  0.97853633     1.26100
H182        H  0.19135427  0.43008412  0.96699740     0.38800
O183        O  0.06350941  0.33896461  0.16212861    -0.81100
O184        O  0.13191961  0.19550291  0.16577405    -0.65800
O185        O  0.11867699  0.30208866  0.17377096    -1.12400
C186        C  0.17164331  0.33339346  0.11053166     1.05800
O187        O  0.19933910  0.23831132  0.15168692    -0.79000
O188        O  0.23691612  0.32603151  0.14107705    -0.66600
Ni189      Ni  0.06020871  0.29492856  0.18045806     1.34900
C190        C  0.23939882  0.35556944  0.15304979     0.84500
O191        O  0.10537425  0.22856042  0.19598114    -0.79500
O192        O  0.05281879  0.25187233  0.19972170    -0.89800
C193        C  0.16888984  0.19985180  0.15844433     0.84100
O194        O  0.02204161  0.24431446  0.16405600    -0.68000
O195        O  0.17838172  0.29918176  0.11132743    -0.87300
C196        C  0.02248222  0.20670787  0.16228395     0.84900
C197        C  0.07252719  0.22968404  0.20511139     1.06500
H198        H  0.11054240  0.25067524  0.13761699     0.38300
O199        O  0.13772261  0.26916375  0.14510866    -1.10000
O200        O  0.20418547  0.35797895  0.15873944    -0.66600
Ni201      Ni  0.14074797  0.32703947  0.14957589     1.26300
O202        O  0.05943786  0.20520933  0.16415126    -0.66800
O203        O  0.16179606  0.35037973  0.12477533    -0.79100
C204        C  0.09857797  0.37807594  0.15787894     0.84300
O205        O  0.13817402  0.38209769  0.15517401    -0.66300
Ni206      Ni  0.18734283  0.26886283  0.13195250     1.27400
Ni207      Ni  0.12303085  0.24759748  0.17039123     1.26100
H208        H  0.14078740  0.32164824  0.18310395     0.38800
O209        O  0.65996485  0.73830384  0.99410549    -0.81100
O210        O  0.53050824  0.82005400  0.98342264    -0.65800
O211        O  0.63194235  0.79807334  0.97920764    -1.12400
C212        C  0.66166970  0.85610502  0.04180738     1.05800
O213        O  0.57140179  0.88672260  0.99851263    -0.79000
O214        O  0.65874641  0.92013846  0.00925008    -0.66600
Ni215      Ni  0.62129864  0.73749191  0.97390325     1.34900
C216        C  0.68918756  0.92004580  0.99845968     0.84500
O217        O  0.56232691  0.78722195  0.95509459    -0.79500
O218        O  0.58241857  0.73188661  0.95325800    -0.89800
C219        C  0.53476858  0.85741406  0.99023975     0.84100
O220        O  0.56692770  0.70188556  0.98887036    -0.68000
O221        O  0.62924751  0.86531522  0.03999788    -0.87300
C222        C  0.53184227  0.70695205  0.98982009     0.84900
C223        C  0.56157671  0.75218480  0.94698566     1.06500
H224        H  0.57843836  0.79602989  0.01390718     0.38300
O225        O  0.59899428  0.82244983  0.00634480    -1.10000
O226        O  0.69049331  0.88346621  0.99398209    -0.66600
Ni227      Ni  0.65478463  0.82047614  0.00356166     1.26300
O228        O  0.53463072  0.74583154  0.98767228    -0.66800
O229        O  0.67648572  0.84169171  0.02836413    -0.79100
C230        C  0.69982153  0.77162881  0.99860897     0.84300
O231        O  0.70731212  0.81285984  0.99972470    -0.66300
Ni232      Ni  0.60045169  0.87389085  0.01869926     1.27400
Ni233      Ni  0.58018428  0.80716756  0.98074117     1.26100
H234        H  0.65350119  0.81889279  0.96995108     0.38800
O235        O  0.73508267  0.77696991  0.16318213    -0.81100
O236        O  0.87078544  0.98897470  0.17385008    -0.65800
O237        O  0.76691316  0.86593899  0.17826771    -1.12400
C238        C  0.73853436  0.89433600  0.11594450     1.05800
O239        O  0.82662630  0.01170557  0.16071013    -0.79000
O240        O  0.74042918  0.95957510  0.14804021    -0.66600
Ni241      Ni  0.77581705  0.81528538  0.18308519     1.34900
C242        C  0.71224296  0.93188946  0.16014998     0.84500
O243        O  0.83782289  0.92499024  0.20231313    -0.79500
O244        O  0.81594972  0.84892826  0.20359322    -0.89800
C245        C  0.86584602  0.02078354  0.16661381     0.84100
O246        O  0.82921497  0.83225423  0.16751503    -0.68000
O247        O  0.77328124  0.93509963  0.11756184    -0.87300
C248        C  0.86472719  0.87231451  0.16608451     0.84900
C249        C  0.83714366  0.89026739  0.21023181     1.06500
H250        H  0.81988087  0.91510691  0.14345802     0.38300
O251        O  0.80022195  0.92199977  0.15128695    -1.10000
O252        O  0.71125070  0.89482166  0.16497243    -0.66600
Ni253      Ni  0.74353511  0.86538605  0.15411030     1.26300
O254        O  0.86327290  0.90892985  0.16915653    -0.66800
O255        O  0.72126140  0.86589309  0.12947166    -0.79100
C256        C  0.69588515  0.77163149  0.15862252     0.84300
O257        O  0.68963181  0.80606812  0.15790511    -0.66300
Ni258      Ni  0.79982568  0.97210772  0.13946158     1.27400
Ni259      Ni  0.81971583  0.92652553  0.17679179     1.26100
H260        H  0.74608582  0.86603981  0.18779022     0.38800
O261        O  0.34292875  0.97812964  0.98477649    -0.81100
O262        O  0.26121802  0.76280917  0.97975950    -0.65800
O263        O  0.28283387  0.88577264  0.97328999    -1.12400
C264        C  0.23923048  0.87159870  0.03783502     1.05800
O265        O  0.19761153  0.74263493  0.99634853    -0.79000
O266        O  0.16704854  0.79767435  0.00854654    -0.66600
Ni267      Ni  0.34302789  0.93435354  0.96658537     1.34900
C268        C  0.16457948  0.82440297  0.99681856     0.84500
O269        O  0.28920120  0.82181265  0.94986700    -0.79500
O270        O  0.34747259  0.89595151  0.94727744    -0.89800
C271        C  0.22495324  0.73218542  0.98813949     0.84100
O272        O  0.37806813  0.91925700  0.98326535    -0.68000
O273        O  0.23043011  0.82975463  0.03667047    -0.87300
C274        C  0.37439121  0.87967524  0.98499710     0.84900
C275        C  0.32463588  0.85414707  0.94128678     1.06500
H276        H  0.29192072  0.84307984  0.00850591     0.38300
O277        O  0.26409120  0.83484654  0.00169157    -1.10000
O278        O  0.20004629  0.86056051  0.99036213    -0.66600
Ni279      Ni  0.26455075  0.89130153  0.99807206     1.26300
O280        O  0.33706130  0.84268512  0.98130616    -0.66800
O281        O  0.24851839  0.89737065  0.02358235    -0.79100
C282        C  0.30920417  0.98379878  0.98970608     0.84300
O283        O  0.26924883  0.94938271  0.99295724    -0.66300
Ni284      Ni  0.21557127  0.78766793  0.01601432     1.27400
Ni285      Ni  0.27432391  0.82523694  0.97587289     1.26100
H286        H  0.26082930  0.88474818  0.96439993     0.38800
O287        O  0.29801478  0.01041946  0.16330461    -0.81100
O288        O  0.08576688  0.93820848  0.16752385    -0.65800
O289        O  0.20483942  0.95366713  0.17509890    -1.12400
C290        C  0.19175277  0.90066792  0.11223832     1.05800
O291        O  0.05802580  0.87499332  0.14987749    -0.79000
O292        O  0.10992162  0.83551106  0.14424439    -0.66600
Ni293      Ni  0.25508633  0.01376698  0.18107029     1.34900
C294        C  0.13845719  0.83376227  0.15522139     0.84500
O295        O  0.14284729  0.96446576  0.19740389    -0.79500
O296        O  0.21762971  0.02142042  0.19989793    -0.89800
C297        C  0.05218508  0.90412010  0.15944716     0.84100
O298        O  0.24243043  0.04930476  0.16371036    -0.68000
O299        O  0.14909089  0.88905033  0.11278842    -0.87300
C300        C  0.20378912  0.04737188  0.16193426     0.84900
C301        C  0.17584169  0.99916540  0.20599972     1.06500
H302        H  0.16360898  0.96163488  0.13880693     0.38300
O303        O  0.15461596  0.93430337  0.14616775    -1.10000
O304        O  0.17762898  0.86895371  0.15940904    -0.66600
Ni305      Ni  0.21005838  0.93313488  0.15096157     1.26300
O306        O  0.16594171  0.01051513  0.16537907    -0.66800
O307        O  0.21780093  0.91632836  0.12627883    -0.79100
C308        C  0.30166629  0.97520064  0.15893277     0.84300
O309        O  0.26625632  0.93558630  0.15686462    -0.66300
Ni310      Ni  0.10636499  0.88421106  0.13234344     1.27400
Ni311      Ni  0.14591137  0.94759379  0.17170582     1.26100
H312        H  0.20257837  0.93197999  0.18444377     0.38800
O313        O  0.39730757  0.89765680  0.32650141    -0.81100
O314        O  0.60250267  0.03796258  0.31825219    -0.65800
O315        O  0.48603795  0.92611942  0.31389072    -1.12400
C316        C  0.52909878  0.89203381  0.37108222     1.05800
O317        O  0.63293183  0.99304007  0.32157119    -0.79000
O318        O  0.57875798  0.89907799  0.32515843    -0.66600
Ni319      Ni  0.43304787  0.92584067  0.30446798     1.34900
C320        C  0.53923682  0.86250594  0.32512219     0.84500
O321        O  0.53802621  0.00517195  0.29132037    -0.79500
O322        O  0.46553077  0.95525865  0.28182492    -0.89800
C323        C  0.63770997  0.03290736  0.31888949     0.84100
O324        O  0.44471845  0.98331347  0.31457371    -0.68000
O325        O  0.56852849  0.90995747  0.36272042    -0.87300
C326        C  0.47624090  0.01443222  0.32458777     0.84900
C327        C  0.50613976  0.98961931  0.27907902     1.06500
H328        H  0.54858855  0.98141372  0.34898966     0.38300
O329        O  0.54704255  0.96049284  0.33917307    -1.10000
O330        O  0.50300307  0.86252027  0.33056301    -0.66600
Ni331      Ni  0.48684227  0.90735600  0.33917613     1.26300
O332        O  0.51519931  0.01700970  0.32742320    -0.66800
O333        O  0.49348496  0.89173845  0.36436816    -0.79100
C334        C  0.39044824  0.85954472  0.33282155     0.84300
O335        O  0.42454090  0.85612149  0.33826929    -0.66300
Ni336      Ni  0.59831308  0.95108618  0.34176782     1.27400
Ni337      Ni  0.54288263  0.98354069  0.31550369     1.26100
H338        H  0.49158084  0.90644050  0.30550800     0.38800
O339        O  0.52123279  0.16994592  0.16324316    -0.81100
O340        O  0.59708254  0.03713419  0.16643289    -0.65800
O341        O  0.58631820  0.14458922  0.17154639    -1.12400
C342        C  0.65373576  0.17791248  0.11126344     1.05800
O343        O  0.67103525  0.08301651  0.15892576    -0.79000
O344        O  0.70614880  0.17550785  0.15319391    -0.66600
Ni345      Ni  0.53428493  0.14254594  0.18383900     1.34900
C346        C  0.70111639  0.21065429  0.15408956     0.84500
O347        O  0.56809087  0.06888388  0.19447680    -0.79500
O348        O  0.54297485  0.11527404  0.20569098    -0.89800
C349        C  0.63834562  0.04497871  0.16545637     0.84100
O350        O  0.48860354  0.08328589  0.17486456    -0.68000
O351        O  0.67472930  0.15802141  0.11770576    -0.87300
C352        C  0.48934735  0.05208876  0.16477910     0.84900
C353        C  0.55267371  0.08327812  0.20773727     1.06500
H354        H  0.58885024  0.08786194  0.13575279     0.38300
O355        O  0.61020664  0.11016052  0.14465996    -1.10000
O356        O  0.66249449  0.20827636  0.15179900    -0.66600
Ni357      Ni  0.60075257  0.16168750  0.14565078     1.26300
O358        O  0.52634989  0.05191888  0.16022730    -0.66800
O359        O  0.61927566  0.17780800  0.11965564    -0.79100
C360        C  0.55077516  0.20700488  0.15530754     0.84300
O361        O  0.58758652  0.21088252  0.14804385    -0.66300
Ni362      Ni  0.67030071  0.12050628  0.13865963     1.27400
Ni363      Ni  0.58905358  0.08926753  0.16942636     1.26100
H364        H  0.61277428  0.16598001  0.17887937     0.38800
O365        O  0.16412606  0.52923197  0.32498668    -0.81100
O366        O  0.02403344  0.59305398  0.32368172    -0.65800
O367        O  0.13595824  0.59071310  0.31691391    -1.12400
C368        C  0.17057708  0.66340218  0.37591454     1.05800
O369        O  0.07069522  0.66824639  0.32746329    -0.79000
O370        O  0.16574915  0.70937597  0.33286723    -0.66600
Ni371      Ni  0.13742137  0.54162401  0.30405883     1.34900
C372        C  0.20133304  0.70481565  0.33244413     0.84500
O373        O  0.05724885  0.56657799  0.29473267    -0.79500
O374        O  0.11035706  0.55132532  0.28239599    -0.89800
C375        C  0.03009694  0.63369740  0.32477445     0.84100
O376        O  0.07853305  0.49313500  0.31206542    -0.68000
O377        O  0.14880721  0.68168745  0.36884807    -0.87300
C378        C  0.04818781  0.49122753  0.32347912     0.84900
C379        C  0.07506542  0.55625861  0.28093920     1.06500
H380        H  0.08003780  0.59281674  0.35326064     0.38300
O381        O  0.10134886  0.61321880  0.34384520    -1.10000
O382        O  0.19891798  0.66667634  0.33560975    -0.66600
Ni383      Ni  0.15421206  0.60602178  0.34276072     1.26300
O384        O  0.04653683  0.52673991  0.32925053    -0.66800
O385        O  0.17140867  0.62824675  0.36844796    -0.79100
C386        C  0.20252972  0.55963621  0.33174343     0.84300
O387        O  0.20533789  0.59474320  0.34024444    -0.66300
Ni388      Ni  0.11052597  0.67350930  0.34788019     1.27400
Ni389      Ni  0.07870884  0.58932591  0.31958268     1.26100
H390        H  0.15554656  0.61774160  0.30948918     0.38800
O391        O  0.89690400  0.40297456  0.16019616    -0.81100
O392        O  0.03334712  0.61033144  0.17077678    -0.65800
O393        O  0.92474155  0.49107320  0.17321903    -1.12400
C394        C  0.89165298  0.53717082  0.11555589     1.05800
O395        O  0.98453133  0.63561597  0.16741569    -0.79000
O396        O  0.89234102  0.58436087  0.15803461    -0.66600
Ni397      Ni  0.92504015  0.43828010  0.18238105     1.34900
C398        C  0.85796894  0.54364731  0.15989585     0.84500
O399        O  0.00003153  0.54453421  0.19719207    -0.79500
O400        O  0.95342931  0.47008103  0.20529490    -0.89800
C401        C  0.02552691  0.64379380  0.17018028     0.84100
O402        O  0.98345835  0.45190044  0.17242121    -0.68000
O403        O  0.91596589  0.57776297  0.12257824    -0.87300
C404        C  0.01628833  0.48587361  0.16390099     0.84900
C405        C  0.98538651  0.51146375  0.20889151     1.06500
H406        H  0.98051838  0.55467187  0.13892669     0.38300
O407        O  0.95888573  0.55322958  0.14840525    -1.10000
O408        O  0.86175331  0.50809385  0.15759782    -0.66600
Ni409      Ni  0.90592723  0.49298954  0.14799626     1.26300
O410        O  0.01810418  0.52477011  0.16167003    -0.66800
O411        O  0.88794043  0.50046439  0.12300689    -0.79100
C412        C  0.85887972  0.39649223  0.15384362     0.84300
O413        O  0.85505121  0.43062584  0.14873222    -0.66300
Ni414      Ni  0.95025356  0.60488414  0.14510411     1.27400
Ni415      Ni  0.98056961  0.54926270  0.17256666     1.26100
H416        H  0.90424147  0.49519259  0.18169300     0.38800
O417        O  0.54026164  0.66770869  0.32273866    -0.81100
O418        O  0.46869348  0.46273745  0.31760994    -0.65800
O419        O  0.47670923  0.57959132  0.31142672    -1.12400
C420        C  0.40188440  0.54481029  0.37008805     1.05800
O421        O  0.39380924  0.43450851  0.32200268    -0.79000
O422        O  0.35468182  0.48951352  0.32706384    -0.66600
Ni423      Ni  0.53054440  0.63037955  0.30092937     1.34900
C424        C  0.35895860  0.52938066  0.32603142     0.84500
O425        O  0.50022917  0.52376709  0.28944832    -0.79500
O426        O  0.52379279  0.59535701  0.27868218    -0.89800
C427        C  0.42818842  0.42825089  0.31973089     0.84100
O428        O  0.57560741  0.61652479  0.30969737    -0.68000
O429        O  0.38201461  0.50368041  0.36329555    -0.87300
C430        C  0.57374687  0.58540986  0.32020535     0.84900
C431        C  0.51577591  0.55398974  0.27654108     1.06500
H432        H  0.46987106  0.52183852  0.34752507     0.38300
O433        O  0.44987289  0.52210063  0.33795952    -1.10000
O434        O  0.39735663  0.56593143  0.32904510    -0.66600
Ni435      Ni  0.45830275  0.58276888  0.33679227     1.26300
O436        O  0.53609115  0.54908453  0.32474773    -0.66800
O437        O  0.43625687  0.57998089  0.36217910    -0.79100
C438        C  0.51016527  0.67764282  0.32826038     0.84300
O439        O  0.47109436  0.64567692  0.33429744    -0.66300
Ni440      Ni  0.38943292  0.47124412  0.34232690     1.27400
Ni441      Ni  0.47509796  0.52224367  0.31390194     1.26100
H442        H  0.45153015  0.57392969  0.30330450     0.38800
O443        O  0.66596979  0.54478262  0.15210482    -0.81100
O444        O  0.46478907  0.47530824  0.16657923    -0.65800
O445        O  0.58254788  0.48266395  0.16523056    -1.12400
C446        C  0.53053034  0.41580004  0.10543358     1.05800
O447        O  0.43897681  0.40155898  0.16124436    -0.79000
O448        O  0.48866919  0.36197503  0.14717643    -0.66600
Ni449      Ni  0.63569203  0.53393713  0.17560237     1.34900
C450        C  0.52914228  0.36719227  0.14679432     0.84500
O451        O  0.53267944  0.50338267  0.19196343    -0.79500
O452        O  0.60584290  0.52458010  0.19947691    -0.89800
C453        C  0.43090526  0.43402323  0.16533621     0.84100
O454        O  0.62187282  0.58079476  0.16979983    -0.68000
O455        O  0.49132965  0.39874975  0.11365688    -0.87300
C456        C  0.58956020  0.58119978  0.16094510     0.84900
C457        C  0.56542253  0.51694552  0.20373227     1.06500
H458        H  0.51743218  0.48165281  0.13322886     0.38300
O459        O  0.51955548  0.46017279  0.14149413    -1.10000
O460        O  0.56523009  0.40620748  0.14468086    -0.66600
Ni461      Ni  0.57969461  0.46766136  0.13877710     1.26300
O462        O  0.55090340  0.54479664  0.15742606    -0.66800
O463        O  0.56899810  0.44763869  0.11267275    -0.79100
C464        C  0.67506442  0.51458195  0.14607923     0.84300
O465        O  0.64289589  0.47928697  0.13775336    -0.66300
Ni466      Ni  0.46689018  0.40114171  0.13751345     1.27400
Ni467      Ni  0.52537937  0.48194731  0.16656232     1.26100
H468        H  0.57809964  0.45611238  0.17218960     0.38800
O469        O  0.20152742  0.49886171  0.49184412    -0.81100
O470        O  0.26776578  0.36413839  0.49798617    -0.65800
O471        O  0.26312771  0.47504796  0.50352724    -1.12400
C472        C  0.33709192  0.51009753  0.44485630     1.05800
O473        O  0.34323517  0.40920167  0.49299143    -0.79000
O474        O  0.38355832  0.50353207  0.48849097    -0.66600
Ni475      Ni  0.21083901  0.47464411  0.51411032     1.34900
C476        C  0.38012109  0.53963844  0.48947224     0.84500
O477        O  0.23654859  0.39693385  0.52575843    -0.79500
O478        O  0.21765184  0.44894824  0.53657578    -0.89800
C479        C  0.30830691  0.36973618  0.49702770     0.84100
O480        O  0.16422781  0.41511040  0.50603393    -0.68000
O481        O  0.35728700  0.48989848  0.45188347    -0.87300
C482        C  0.16415217  0.38509651  0.49499828     0.84900
C483        C  0.22238168  0.41379359  0.53869466     1.06500
H484        H  0.26795542  0.42016862  0.46757680     0.38300
O485        O  0.28815847  0.44110711  0.47711466    -1.10000
O486        O  0.34256603  0.53835707  0.48576288    -0.66600
Ni487      Ni  0.28126785  0.49434737  0.47810785     1.26300
O488        O  0.20078956  0.38425122  0.49035234    -0.66800
O489        O  0.30264566  0.51101711  0.45267644    -0.79100
C490        C  0.23143577  0.53897149  0.48665931     0.84300
O491        O  0.27030824  0.54589572  0.48047134    -0.66300
Ni492      Ni  0.34836798  0.45006380  0.47281136     1.27400
Ni493      Ni  0.26239040  0.41814403  0.50122389     1.26100
H494        H  0.28876201  0.49482934  0.51155026     0.38800
O495        O  0.06250198  0.23757264  0.65555318    -0.81100
O496        O  0.27040902  0.37347713  0.64996541    -0.65800
O497        O  0.15264977  0.26338728  0.64574450    -1.12400
C498        C  0.18453098  0.23169044  0.70513434     1.05800
O499        O  0.29976585  0.32977378  0.65785462    -0.79000
O500        O  0.24299364  0.23746839  0.66282052    -0.66600
Ni501      Ni  0.10191267  0.26334362  0.63414286     1.34900
C502        C  0.20326377  0.20137714  0.66255858     0.84500
O503        O  0.20984759  0.33806810  0.62223208    -0.79500
O504        O  0.13786115  0.28911977  0.61197281    -0.89800
C505        C  0.30489723  0.36775110  0.65182118     0.84100
O506        O  0.11481677  0.32289870  0.64241041    -0.68000
O507        O  0.22587063  0.25260546  0.69854068    -0.87300
C508        C  0.14617599  0.35458414  0.65235001     0.84900
C509        C  0.17946251  0.32171476  0.60947063     1.06500
H510        H  0.21021428  0.32250614  0.68104491     0.38300
O511        O  0.20996815  0.30017633  0.67222294    -1.10000
O512        O  0.16627431  0.20229275  0.66545505    -0.66600
Ni513      Ni  0.14899143  0.24725603  0.67159950     1.26300
O514        O  0.18388727  0.35615892  0.65647527    -0.66800
O515        O  0.15043521  0.23219005  0.69739527    -0.79100
C516        C  0.05411831  0.19931616  0.66231570     0.84300
O517        O  0.08666562  0.19592467  0.66961667    -0.66300
Ni518      Ni  0.26030054  0.29131813  0.67791446     1.27400
Ni519      Ni  0.21046334  0.31969506  0.64736274     1.26100
H520        H  0.15826111  0.24211495  0.63840954     0.38800
O521        O  0.34050073  0.86962806  0.49612280    -0.81100
O522        O  0.13422656  0.80035958  0.50333633    -0.65800
O523        O  0.25113627  0.80759272  0.50798480    -1.12400
C524        C  0.21516526  0.73350134  0.44970085     1.05800
O525        O  0.10364718  0.72538706  0.49732098    -0.79000
O526        O  0.15949632  0.68761725  0.49411553    -0.66600
Ni527      Ni  0.30355392  0.86104069  0.51793120     1.34900
C528        C  0.19916437  0.69129691  0.49468124     0.84500
O529        O  0.19685769  0.83054405  0.53112492    -0.79500
O530        O  0.27000733  0.85600739  0.54036884    -0.89800
C531        C  0.09898789  0.76038507  0.50083553     0.84100
O532        O  0.29141513  0.90661743  0.50854439    -0.68000
O533        O  0.17465623  0.71115163  0.45709518    -0.87300
C534        C  0.25962070  0.90532117  0.49870222     0.84900
C535        C  0.22868974  0.84696674  0.54341394     1.06500
H536        H  0.19145977  0.80177559  0.47255675     0.38300
O537        O  0.19211802  0.78160717  0.48194948    -1.10000
O538        O  0.23570194  0.72814218  0.49005553    -0.66600
Ni539      Ni  0.25247284  0.78945201  0.48256502     1.26300
O540        O  0.22094804  0.86836181  0.49571842    -0.66800
O541        O  0.24929020  0.76920277  0.45717091    -0.79100
C542        C  0.34752913  0.83814263  0.48982119     0.84300
O543        O  0.31386092  0.80008705  0.48426660    -0.66300
Ni544      Ni  0.14164450  0.72049156  0.47764292     1.27400
Ni545      Ni  0.19387869  0.80650818  0.50628093     1.26100
H546        H  0.24559794  0.78232087  0.51603329     0.38800
O547        O  0.20476254  0.00825477  0.65703105    -0.81100
O548        O  0.13642668  0.80118304  0.65853413    -0.65800
O549        O  0.14066488  0.91540126  0.65006739    -1.12400
C550        C  0.07015897  0.89006170  0.70862845     1.05800
O551        O  0.06144129  0.77083400  0.66457938    -0.79000
O552        O  0.02433663  0.82830801  0.66547389    -0.66600
Ni553      Ni  0.19070280  0.96453877  0.63712734     1.34900
C554        C  0.02766697  0.86781822  0.66422199     0.84500
O555        O  0.16433338  0.85748093  0.62924308    -0.79500
O556        O  0.18004923  0.92457447  0.61624085    -0.89800
C557        C  0.09613026  0.76611022  0.66019584     0.84100
O558        O  0.23811165  0.95401877  0.64584587    -0.68000
O559        O  0.04873316  0.84868558  0.70201428    -0.87300
C560        C  0.23910405  0.92621934  0.65749188     0.84900
C561        C  0.17607400  0.88464492  0.61536578     1.06500
H562        H  0.13817254  0.86254908  0.68738292     0.38300
O563        O  0.11769271  0.86192580  0.67783885    -1.10000
O564        O  0.06430067  0.90492005  0.66840176    -0.66600
Ni565      Ni  0.12591309  0.92226147  0.67546236     1.26300
O566        O  0.20310894  0.89004101  0.66346309    -0.66800
O567        O  0.10655662  0.92338126  0.70096500    -0.79100
C568        C  0.17542062  0.01656320  0.66484294     0.84300
O569        O  0.13838038  0.98402365  0.67191953    -0.66300
Ni570      Ni  0.05717092  0.81230331  0.68286680     1.27400
Ni571      Ni  0.14094433  0.85932326  0.65372517     1.26100
H572        H  0.11381679  0.90727155  0.64252158     0.38800
O573        O  0.57460284  0.73517624  0.49071150    -0.81100
O574        O  0.70888139  0.93874442  0.50318686    -0.65800
O575        O  0.59807648  0.82049544  0.50373209    -1.12400
C576        C  0.57313491  0.86976767  0.44596943     1.05800
O577        O  0.66123550  0.96544643  0.49952690    -0.79000
O578        O  0.56946083  0.91200530  0.49118053    -0.66600
Ni579      Ni  0.59574253  0.76743931  0.51382529     1.34900
C580        C  0.53448807  0.87150449  0.49023196     0.84500
O581        O  0.67080381  0.87071627  0.52906392    -0.79500
O582        O  0.61750596  0.79826705  0.53740041    -0.89800
C583        C  0.70179225  0.97280209  0.50271380     0.84100
O584        O  0.65637157  0.78133471  0.50693099    -0.68000
O585        O  0.59240122  0.90848671  0.45474811    -0.87300
C586        C  0.68904334  0.81322129  0.49751320     0.84900
C587        C  0.65131584  0.83850224  0.54117961     1.06500
H588        H  0.65952317  0.88708576  0.47058128     0.38300
O589        O  0.63637280  0.88383410  0.47967821    -1.10000
O590        O  0.53764540  0.83671672  0.48542984    -0.66600
Ni591      Ni  0.58397873  0.82306735  0.47780544     1.26300
O592        O  0.69108772  0.85156005  0.49366675    -0.66800
O593        O  0.57134053  0.83285564  0.45231844    -0.79100
C594        C  0.53597240  0.72685384  0.48448509     0.84300
O595        O  0.53289394  0.75984320  0.47733928    -0.66300
Ni596      Ni  0.62653906  0.93489703  0.47732625     1.27400
Ni597      Ni  0.65474365  0.87781098  0.50409660     1.26100
H598        H  0.57666460  0.82519869  0.51137885     0.38800
O599        O  0.83396687  0.86581578  0.65532643    -0.81100
O600        O  0.69065419  0.92705431  0.65744430    -0.65800
O601        O  0.80287981  0.92668065  0.64768167    -1.12400
C602        C  0.84607742  0.00024594  0.70597783     1.05800
O603        O  0.73466433  0.00255575  0.66256466    -0.79000
O604        O  0.82963857  0.04399018  0.66316035    -0.66600
Ni605      Ni  0.80290981  0.87611461  0.63533109     1.34900
C606        C  0.86686209  0.04265599  0.66186387     0.84500
O607        O  0.72085792  0.90041547  0.62752763    -0.79500
O608        O  0.77169021  0.88261943  0.61448676    -0.89800
C609        C  0.69523934  0.96703431  0.65905492     0.84100
O610        O  0.74594744  0.82776556  0.64509655    -0.68000
O611        O  0.82480353  0.02005032  0.69971148    -0.87300
C612        C  0.71659295  0.82629539  0.65694475     0.84900
C613        C  0.73660272  0.88792992  0.61366066     1.06500
H614        H  0.75188204  0.92863339  0.68560025     0.38300
O615        O  0.77129508  0.94924228  0.67578671    -1.10000
O616        O  0.86754430  0.00592785  0.66529090    -0.66600
Ni617      Ni  0.82508694  0.94387560  0.67281706     1.26300
O618        O  0.71454173  0.86195151  0.66218858    -0.66800
O619        O  0.84521637  0.96500124  0.69805835    -0.79100
C620        C  0.87190231  0.89644214  0.66231729     0.84300
O621        O  0.87667277  0.93426829  0.66876259    -0.66300
Ni622      Ni  0.78015771  0.00921356  0.68070279     1.27400
Ni623      Ni  0.74533815  0.92426906  0.65197143     1.26100
H624        H  0.82108785  0.95311673  0.63974991     0.38800
O625        O  0.73404441  0.57931229  0.99182601    -0.81100
O626        O  0.93806648  0.71642677  0.99090477    -0.65800
O627        O  0.82375704  0.60498505  0.98311219    -1.12400
C628        C  0.84851613  0.56463936  0.04243783     1.05800
O629        O  0.96978630  0.67520431  0.99975937    -0.79000
O630        O  0.91418472  0.58195874  0.99943232    -0.66600
Ni631      Ni  0.77442365  0.60575884  0.97076501     1.34900
C632        C  0.87609346  0.54426952  0.99801321     0.84500
O633        O  0.88217327  0.68315136  0.96133719    -0.79500
O634        O  0.81293610  0.63265564  0.94920801    -0.89800
C635        C  0.97332640  0.71240961  0.99355201     0.84100
O636        O  0.78524794  0.66478868  0.97885263    -0.68000
O637        O  0.89006983  0.58456185  0.03612524    -0.87300
C638        C  0.81298285  0.69429017  0.99049392     0.84900
C639        C  0.85468765  0.66560935  0.94749471     1.06500
H640        H  0.87481554  0.65893392  0.02036343     0.38300
O641        O  0.87663890  0.63851988  0.01111070    -1.10000
O642        O  0.83744463  0.54173283  0.00158103    -0.66600
Ni643      Ni  0.81675211  0.58437432  0.00854267     1.26300
O644        O  0.84965282  0.69527510  0.99593457    -0.66800
O645        O  0.81524118  0.56586885  0.03419928    -0.79100
C646        C  0.72341826  0.53934859  0.99736128     0.84300
O647        O  0.75448599  0.53302795  0.00457569    -0.66300
Ni648      Ni  0.92690108  0.62974784  0.01732593     1.27400
Ni649      Ni  0.87977045  0.66190475  0.98653709     1.26100
H650        H  0.83129497  0.58557000  0.97544357     0.38800
O651        O  0.85962012  0.83586217  0.83331762    -0.81100
O652        O  0.92769182  0.69528774  0.83078886    -0.65800
O653        O  0.92474229  0.80701124  0.83810545    -1.12400
C654        C  0.98132371  0.84027260  0.77730988     1.05800
O655        O  0.99976908  0.73695197  0.82012070    -0.79000
O656        O  0.03548321  0.83068402  0.81876042    -0.66600
Ni657      Ni  0.87761927  0.80881660  0.85274792     1.34900
C658        C  0.03353569  0.86763122  0.81933631     0.84500
O659        O  0.90979329  0.73217034  0.86088843    -0.79500
O660        O  0.89224040  0.78329859  0.87363380    -0.89800
C661        C  0.96574740  0.69862654  0.82563687     0.84100
O662        O  0.82816533  0.74907086  0.84573258    -0.68000
O663        O  0.00415340  0.82176459  0.78315974    -0.87300
C664        C  0.82509442  0.71707654  0.83494826     0.84900
C665        C  0.90068108  0.75030151  0.87491676     1.06500
H666        H  0.91715790  0.74671533  0.80158649     0.38300
O667        O  0.94027942  0.76924771  0.80992304    -1.10000
O668        O  0.99615412  0.86734372  0.81622849    -0.66600
Ni669      Ni  0.93271571  0.82192739  0.81199493     1.26300
O670        O  0.85992194  0.71513160  0.82858916    -0.66800
O671        O  0.94544041  0.83640684  0.78579081    -0.79100
C672        C  0.88687781  0.87071932  0.82352282     0.84300
O673        O  0.92160225  0.87234723  0.81518297    -0.66300
Ni674      Ni  0.99948594  0.77959068  0.80221631     1.27400
Ni675      Ni  0.92456641  0.75013964  0.83522123     1.26100
H676        H  0.95324758  0.82806386  0.84439398     0.38800
O677        O  0.87449005  0.34994390  0.99077855    -0.81100
O678        O  0.80369721  0.14477385  0.98459689    -0.65800
O679        O  0.80965801  0.26124459  0.98043635    -1.12400
C680        C  0.73983870  0.22526151  0.03989918     1.05800
O681        O  0.72926024  0.11437656  0.99126219    -0.79000
O682        O  0.69149005  0.17122505  0.99608114    -0.66600
Ni683      Ni  0.86123144  0.31234597  0.96884953     1.34900
C684        C  0.69592348  0.21133048  0.99610121     0.84500
O685        O  0.83004213  0.20596643  0.95629321    -0.79500
O686        O  0.85072078  0.27748587  0.94621848    -0.89800
C687        C  0.76417847  0.10956587  0.98773775     0.84100
O688        O  0.90785072  0.29916187  0.97623703    -0.68000
O689        O  0.71859083  0.18497943  0.03230151    -0.87300
C690        C  0.90732602  0.26909259  0.98702160     0.84900
C691        C  0.84274875  0.23637681  0.94346740     1.06500
H692        H  0.80719189  0.20182173  0.01549830     0.38300
O693        O  0.78633783  0.20285668  0.00654332    -1.10000
O694        O  0.73376434  0.24746512  0.00004787    -0.66600
Ni695      Ni  0.79505131  0.26380228  0.00648889     1.26300
O696        O  0.87070090  0.23147845  0.99128146    -0.66800
O697        O  0.77550948  0.26017741  0.03246060    -0.79100
C698        C  0.84489417  0.35894010  0.99773830     0.84300
O699        O  0.80761642  0.32676173  0.00496488    -0.66300
Ni700      Ni  0.72580271  0.15226830  0.01137254     1.27400
Ni701      Ni  0.80854548  0.20389295  0.98169461     1.26100
H702        H  0.78314278  0.25547849  0.97310136     0.38800
O703        O  0.00941718  0.20162137  0.83696361    -0.81100
O704        O  0.79486448  0.13551353  0.83117179    -0.65800
O705        O  0.91448711  0.14931449  0.83711834    -1.12400
C706        C  0.88762040  0.08696862  0.77605101     1.05800
O707        O  0.76922587  0.06275878  0.82328642    -0.79000
O708        O  0.82959603  0.03071314  0.81746139    -0.66600
Ni709      Ni  0.96028799  0.20651275  0.84813962     1.34900
C710        C  0.87011892  0.03636272  0.81824423     0.84500
O711        O  0.85001189  0.15572653  0.86037908    -0.79500
O712        O  0.91808652  0.21920552  0.86218945    -0.89800
C713        C  0.76145208  0.09500604  0.82822801     0.84100
O714        O  0.95708797  0.23812144  0.82713008    -0.68000
O715        O  0.84624059  0.06438923  0.78245920    -0.87300
C716        C  0.92182806  0.24144621  0.82362312     0.84900
C717        C  0.87840382  0.19182204  0.86906824     1.06500
H718        H  0.85784800  0.14890874  0.80121463     0.38300
O719        O  0.85875276  0.12702098  0.80963828    -1.10000
O720        O  0.90585373  0.07595762  0.81612553    -0.66600
Ni721      Ni  0.92039255  0.13812749  0.81066392     1.26300
O722        O  0.88037890  0.20916576  0.82766108    -0.66800
O723        O  0.92065390  0.12223941  0.78442749    -0.79100
C724        C  0.01563011  0.18029842  0.82351418     0.84300
O725        O  0.98416286  0.15385119  0.81207770    -0.66300
Ni726      Ni  0.81038555  0.06615321  0.80319841     1.27400
Ni727      Ni  0.85491048  0.14358765  0.83467642     1.26100
H728        H  0.91148201  0.12401432  0.84455814     0.38800
O729        O  0.50675774  0.21524281  0.98046087    -0.81100
O730        O  0.36108226  0.27547268  0.97949565    -0.65800
O731        O  0.47492032  0.27622543  0.97265729    -1.12400
C732        C  0.50699186  0.34315789  0.03180056     1.05800
O733        O  0.40417092  0.35067297  0.98550772    -0.79000
O734        O  0.49835809  0.39056957  0.98770057    -0.66600
Ni735      Ni  0.47795075  0.22746441  0.96000633     1.34900
C736        C  0.53573147  0.38960017  0.98816861     0.84500
O737        O  0.39652143  0.25132336  0.95079401    -0.79500
O738        O  0.44976204  0.23610377  0.93853245    -0.89800
C739        C  0.36518343  0.31527230  0.98147070     0.84100
O740        O  0.41984961  0.17771722  0.96828686    -0.68000
O741        O  0.48948885  0.36571941  0.02461797    -0.87300
C742        C  0.38827156  0.17479841  0.97925800     0.84900
C743        C  0.41456569  0.24105528  0.93713896     1.06500
H744        H  0.41678679  0.27489965  0.00911129     0.38300
O745        O  0.43805035  0.29602287  0.99982786    -1.10000
O746        O  0.53588066  0.35301125  0.99241095    -0.66600
Ni747      Ni  0.49156173  0.29019160  0.99837218     1.26300
O748        O  0.38503535  0.20977152  0.98466243    -0.66800
O749        O  0.50577500  0.30761702  0.02411926    -0.79100
C750        C  0.54223684  0.24529849  0.98922352     0.84300
O751        O  0.54337746  0.28108179  0.99603312    -0.66300
Ni752      Ni  0.44727639  0.35622567  0.00458747     1.27400
Ni753      Ni  0.41667801  0.27316428  0.97548226     1.26100
H754        H  0.49442014  0.30365881  0.96542833     0.38800
O755        O  0.22580280  0.06312098  0.82436094    -0.81100
O756        O  0.36965853  0.26825487  0.82527161    -0.65800
O757        O  0.25680860  0.15490373  0.83264344    -1.12400
C758        C  0.22165601  0.18019598  0.77258949     1.05800
O759        O  0.32974052  0.30064892  0.81598225    -0.79000
O760        O  0.23674695  0.24909395  0.81249649    -0.66600
Ni761      Ni  0.25543801  0.10427422  0.84495662     1.34900
C762        C  0.19961387  0.21124578  0.81549999     0.84500
O763        O  0.33390088  0.21264111  0.85419370    -0.79500
O764        O  0.28533087  0.14250671  0.86627885    -0.89800
C765        C  0.36596461  0.30379367  0.82306283     0.84100
O766        O  0.31283278  0.11236403  0.83602642    -0.68000
O767        O  0.24626278  0.22267014  0.77751991    -0.87300
C768        C  0.34533417  0.14228019  0.82590568     0.84900
C769        C  0.31827732  0.18433621  0.86771785     1.06500
H770        H  0.31298082  0.20354953  0.79567267     0.38300
O771        O  0.29277677  0.20709426  0.80451554    -1.10000
O772        O  0.19680296  0.17200479  0.81385056    -0.66600
Ni773      Ni  0.23709644  0.14854584  0.80725931     1.26300
O774        O  0.34832150  0.18027833  0.82105009    -0.66800
O775        O  0.21882681  0.14628687  0.78176567    -0.79100
C776        C  0.18735516  0.05552631  0.81810443     0.84300
O777        O  0.18377647  0.08845598  0.81129113    -0.66300
Ni778      Ni  0.28804274  0.25902376  0.79710200     1.27400
Ni779      Ni  0.31432869  0.21039830  0.82925094     1.26100
H780        H  0.23763223  0.16293502  0.84023391     0.38800
O781        O  0.67301730  0.62979984  0.65889229    -0.81100
O782        O  0.58981976  0.41631736  0.64846443    -0.65800
O783        O  0.61365478  0.54029192  0.64459460    -1.12400
C784        C  0.55462011  0.51514981  0.70745721     1.05800
O785        O  0.52321047  0.39277863  0.66330803    -0.79000
O786        O  0.49069996  0.44714285  0.67442167    -0.66600
Ni787      Ni  0.67472553  0.58926796  0.63953261     1.34900
C788        C  0.49215567  0.47637188  0.66291585     0.84500
O789        O  0.62226039  0.47953734  0.62012273    -0.79500
O790        O  0.68109830  0.55380828  0.61930202    -0.89800
C791        C  0.55277115  0.38431942  0.65580819     0.84100
O792        O  0.70705806  0.57067166  0.65593415    -0.68000
O793        O  0.54532159  0.47328557  0.70550684    -0.87300
C794        C  0.70274972  0.53074690  0.65602927     0.84900
C795        C  0.65842998  0.51288828  0.61228598     1.06500
H796        H  0.61462593  0.49012851  0.67909545     0.38300
O797        O  0.58879124  0.48417731  0.67171394    -1.10000
O798        O  0.52910017  0.51403392  0.65880098    -0.66600
Ni799      Ni  0.59101537  0.54194347  0.66899465     1.26300
O800        O  0.66487528  0.49429948  0.65238557    -0.66800
O801        O  0.56889380  0.54339821  0.69388202    -0.79100
C802        C  0.63957758  0.63589732  0.66386507     0.84300
O803        O  0.59847632  0.60182684  0.66518299    -0.66300
Ni804      Ni  0.53626190  0.43497701  0.68388371     1.27400
Ni805      Ni  0.60349395  0.47899770  0.64593114     1.26100
H806        H  0.59358833  0.54102479  0.63535095     0.38800
O807        O  0.62991837  0.67017299  0.83153105    -0.81100
O808        O  0.41870399  0.59695437  0.84124852    -0.65800
O809        O  0.53982170  0.61371448  0.84527345    -1.12400
C810        C  0.51421626  0.55965441  0.78168206     1.05800
O811        O  0.39350904  0.53178657  0.82552203    -0.79000
O812        O  0.44405933  0.49565735  0.81350340    -0.66600
Ni813      Ni  0.59071104  0.67328717  0.85111449     1.34900
C814        C  0.47255206  0.49370225  0.82444912     0.84500
O815        O  0.48056800  0.62517277  0.86992520    -0.79500
O816        O  0.55622120  0.68045217  0.87142846    -0.89800
C817        C  0.38609164  0.56199193  0.83307533     0.84100
O818        O  0.57542179  0.71004159  0.83561523    -0.68000
O819        O  0.47347933  0.55346418  0.78329071    -0.87300
C820        C  0.53609328  0.70715842  0.83503877     0.84900
C821        C  0.51477760  0.66018338  0.87796553     1.06500
H822        H  0.49338311  0.62118797  0.81076972     0.38300
O823        O  0.48546629  0.59377377  0.81790339    -1.10000
O824        O  0.51065107  0.52907244  0.82938560    -0.66600
Ni825      Ni  0.54132475  0.59239733  0.82048410     1.26300
O826        O  0.49868372  0.66966932  0.83803936    -0.66800
O827        O  0.54243992  0.57173364  0.79524446    -0.79100
C828        C  0.63429949  0.63518876  0.82760140     0.84300
O829        O  0.59910081  0.59568126  0.82455055    -0.66300
Ni830      Ni  0.43528036  0.54434403  0.80495627     1.27400
Ni831      Ni  0.48004372  0.60714541  0.84392355     1.26100
H832        H  0.53886745  0.59194604  0.85427628     0.38800
O833        O  0.39368853  0.99466526  0.82313011    -0.81100
O834        O  0.46685005  0.85810493  0.83365287    -0.65800
O835        O  0.44752218  0.96071907  0.83821114    -1.12400
C836        C  0.50959611  0.99400451  0.77660345     1.05800
O837        O  0.53290290  0.89578232  0.81783482    -0.79000
O838        O  0.56965376  0.98452596  0.80838537    -0.66600
Ni839      Ni  0.38651967  0.94975764  0.84172522     1.34900
C840        C  0.57053368  0.01370805  0.82021931     0.84500
O841        O  0.43380208  0.89009501  0.86159817    -0.79500
O842        O  0.37552814  0.90583417  0.86119595    -0.89800
C843        C  0.50385735  0.86099471  0.82728764     0.84100
O844        O  0.35628919  0.90059845  0.82364547    -0.68000
O845        O  0.51465211  0.95877513  0.77736745    -0.87300
C846        C  0.35864343  0.86381350  0.82303899     0.84900
C847        C  0.39665984  0.88704123  0.86855691     1.06500
H848        H  0.44526622  0.90979052  0.80311437     0.38300
O849        O  0.47179512  0.92835167  0.81089218    -1.10000
O850        O  0.53498257  0.01649273  0.82498610    -0.66600
Ni851      Ni  0.47322283  0.98571702  0.81455124     1.26300
O852        O  0.39389699  0.86308957  0.82867923    -0.66800
O853        O  0.49783648  0.01000571  0.79047347    -0.79100
C854        C  0.42906617  0.03476389  0.82063201     0.84300
O855        O  0.46940323  0.04003778  0.81946237    -0.66300
Ni856      Ni  0.52178403  0.92771520  0.79825354     1.27400
Ni857      Ni  0.45507522  0.90821996  0.83627490     1.26100
H858        H  0.46694569  0.98103248  0.84807041     0.38800
O859        O  0.43279143  0.06946484  0.65268909    -0.81100
O860        O  0.64616360  0.21233206  0.64705571    -0.65800
O861        O  0.52580465  0.10485339  0.64093446    -1.12400
C862        C  0.54835843  0.07943505  0.70441752     1.05800
O863        O  0.66886462  0.16851602  0.66027753    -0.79000
O864        O  0.61878822  0.08249525  0.67252767    -0.66600
Ni865      Ni  0.47456723  0.11077025  0.63368279     1.34900
C866        C  0.58874878  0.05064361  0.66226471     0.84500
O867        O  0.58717152  0.17704202  0.61751072    -0.79500
O868        O  0.51105885  0.15178269  0.61382412    -0.89800
C869        C  0.67803281  0.20776899  0.65441187     0.84100
O870        O  0.48618094  0.16243883  0.64918288    -0.68000
O871        O  0.59030733  0.11209719  0.70261672    -0.87300
C872        C  0.52426015  0.19978574  0.65145032     0.84900
C873        C  0.55334218  0.17465780  0.60837988     1.06500
H874        H  0.57108641  0.16064512  0.67635081     0.38300
O875        O  0.57840628  0.14076679  0.66888140    -1.10000
O876        O  0.55117174  0.04855280  0.65753135    -0.66600
Ni877      Ni  0.52231134  0.08367500  0.66579469     1.26300
O878        O  0.56320540  0.20196535  0.64947304    -0.66800
O879        O  0.51977501  0.06450967  0.69101054    -0.79100
C880        C  0.42909448  0.03220458  0.65887650     0.84300
O881        O  0.46442631  0.02871268  0.66180736    -0.66300
Ni882      Ni  0.62834603  0.14065264  0.68113626     1.27400
Ni883      Ni  0.58505418  0.15985219  0.64328358     1.26100
H884        H  0.52856090  0.08406639  0.63216205     0.38800
O885        O  0.06737942  0.43551886  0.83141513    -0.81100
O886        O  0.20715791  0.65067887  0.83626366    -0.65800
O887        O  0.10205065  0.52874323  0.84260680    -1.12400
C888        C  0.08101261  0.54779767  0.77816984     1.05800
O889        O  0.16281443  0.67009923  0.82133551    -0.79000
O890        O  0.07919446  0.61702260  0.80685253    -0.66600
Ni891      Ni  0.11120853  0.47927689  0.84953018     1.34900
C892        C  0.04869128  0.59045960  0.81853617     0.84500
O893        O  0.17136334  0.59210654  0.86613859    -0.79500
O894        O  0.15367969  0.51756760  0.86877273    -0.89800
C895        C  0.20169331  0.68119750  0.82814868     0.84100
O896        O  0.16265750  0.49320104  0.83305681    -0.68000
O897        O  0.11592172  0.58850247  0.77941029    -0.87300
C898        C  0.19952849  0.53242211  0.83203669     0.84900
C899        C  0.17297521  0.55951632  0.87473480     1.06500
H900        H  0.15849358  0.57187531  0.80760092     0.38300
O901        O  0.13837840  0.58008323  0.81439863    -1.10000
O902        O  0.04806745  0.55543887  0.82563288    -0.66600
Ni903      Ni  0.08124501  0.52449665  0.81767642     1.26300
O904        O  0.19911202  0.56959364  0.83511577    -0.66800
O905        O  0.06189841  0.52140983  0.79222575    -0.79100
C906        C  0.02971267  0.43153271  0.82535799     0.84300
O907        O  0.02617614  0.46683720  0.82213382    -0.66300
Ni908      Ni  0.13956789  0.62842009  0.80063401     1.27400
Ni909      Ni  0.15549758  0.58894137  0.84019667     1.26100
H910        H  0.08050524  0.53020657  0.85138063     0.38800
O911        O  0.99606914  0.39722894  0.65873657    -0.81100
O912        O  0.85934970  0.46963708  0.64922110    -0.65800
O913        O  0.96367835  0.45316197  0.64412279    -1.12400
C914        C  0.99298572  0.51072114  0.70666299     1.05800
O915        O  0.89846284  0.53670439  0.66404529    -0.79000
O916        O  0.98637938  0.57404177  0.67417261    -0.66600
Ni917      Ni  0.95434714  0.39291611  0.63923214     1.34900
C918        C  0.01699230  0.57534190  0.66308109     0.84500
O919        O  0.89215970  0.43893941  0.62063769    -0.79500
O920        O  0.91313988  0.38443867  0.61903031    -0.89800
C921        C  0.86192500  0.50612422  0.65605428     0.84100
O922        O  0.90210707  0.35716071  0.65546831    -0.68000
O923        O  0.96011875  0.51924785  0.70511178    -0.87300
C924        C  0.86605098  0.36046570  0.65709067     0.84900
C925        C  0.89165555  0.40391250  0.61266048     1.06500
H926        H  0.91090073  0.44925722  0.67929245     0.38300
O927        O  0.93015522  0.47585958  0.67158295    -1.10000
O928        O  0.02018203  0.53980839  0.65860839    -0.66600
Ni929      Ni  0.98724020  0.47684404  0.66827826     1.26300
O930        O  0.86686948  0.39787350  0.65354601    -0.66800
O931        O  0.00939079  0.49871949  0.69293515    -0.79100
C932        C  0.03561831  0.43199745  0.66257385     0.84300
O933        O  0.04126667  0.47245495  0.66385565    -0.66300
Ni934      Ni  0.92954032  0.52612137  0.68402380     1.27400
Ni935      Ni  0.91047486  0.45954291  0.64612394     1.26100
H936        H  0.98429319  0.47399176  0.63463543     0.38800
C937        C  0.01095456  0.51204531  0.75910456    -0.06000
C938        C  0.05922345  0.53222392  0.75975270    -0.00100
C939        C  0.08518316  0.54087224  0.74293352    -0.08600
C940        C  0.06190386  0.53235099  0.72587562    -0.06000
C941        C  0.01399127  0.51566199  0.72521888    -0.00100
C942        C  0.98763026  0.50348564  0.74208691    -0.08500
C943        C  0.93525490  0.48183232  0.74235099     0.61800
H944        H  0.99175439  0.50536467  0.77215394     0.12500
H945        H  0.08145160  0.54040240  0.71287586     0.12500
C946        C  0.13700024  0.55866869  0.74290233     0.62100
F947        F  0.91642506  0.46448224  0.75980156    -0.23100
F948        F  0.91548221  0.44542827  0.72965667    -0.20400
F949        F  0.92368496  0.51484259  0.73785842    -0.20100
F950        F  0.14669440  0.53305643  0.75515740    -0.20200
F951        F  0.16096448  0.60484189  0.74821099    -0.20500
F952        F  0.15301489  0.55502181  0.72533985    -0.23200
C953        C  0.76250453  0.23773801  0.65642459    -0.06000
C954        C  0.72599137  0.24731603  0.65665070    -0.00100
C955        C  0.73568194  0.29259294  0.66141507    -0.08600
C956        C  0.78215644  0.32773167  0.66333418    -0.06000
C957        C  0.81936982  0.31927877  0.66110631    -0.00100
C958        C  0.80899907  0.27258309  0.65920893    -0.08500
C959        C  0.84575424  0.25869954  0.66061135     0.61800
H960        H  0.75432732  0.20236847  0.65388984     0.12500
H961        H  0.78970638  0.36289320  0.66585657     0.12500
C962        C  0.69743579  0.30385701  0.66505417     0.62100
F963        F  0.82615911  0.21109034  0.66186268    -0.23100
F964        F  0.87169932  0.27832098  0.67652448    -0.20400
F965        F  0.87461559  0.27310578  0.64511470    -0.20100
F966        F  0.66609303  0.27319995  0.67797820    -0.20200
F967        F  0.67483843  0.30070228  0.64859316    -0.20500
F968        F  0.71461796  0.34824471  0.67220373    -0.23200
C969        C  0.55943697  0.08354980  0.73850974    -0.06000
C970        C  0.53318817  0.05756775  0.72304450    -0.00100
C971        C  0.49673225  0.01092276  0.72569476    -0.08600
C972        C  0.48990139  0.99179614  0.74361882    -0.06000
C973        C  0.51755501  0.01745013  0.75866486    -0.00100
C974        C  0.55259386  0.06412949  0.75629771    -0.08500
C975        C  0.58446722  0.09233738  0.77219244     0.61800
H976        H  0.58649371  0.11920011  0.73648168     0.12500
H977        H  0.46298399  0.95626846  0.74609573     0.12500
C978        C  0.46557613  0.98065930  0.70993523     0.62100
F979        F  0.61884243  0.13577697  0.76642383    -0.23100
F980        F  0.60570327  0.06928862  0.77907673    -0.20400
F981        F  0.55934250  0.09847027  0.78635456    -0.20100
F982        F  0.49201517  0.97701395  0.69564887    -0.20200
F983        F  0.44024724  0.99966266  0.70321934    -0.20500
F984        F  0.43431107  0.93617346  0.71584463    -0.23200
C985        C  0.28252179  0.73456235  0.81822424    -0.06000
C986        C  0.24070007  0.72894394  0.82537950    -0.00100
C987        C  0.23571324  0.76840974  0.82796643    -0.08600
C988        C  0.27401377  0.81258325  0.82432991    -0.06000
C989        C  0.31702214  0.81850581  0.81853651    -0.00100
C990        C  0.32018620  0.77857581  0.81396206    -0.08500
C991        C  0.36201797  0.78044001  0.80439748     0.61800
H992        H  0.28532217  0.70406358  0.81536566     0.12500
H993        H  0.27151913  0.84307632  0.82744472     0.12500
C994        C  0.19116941  0.76431314  0.83569691     0.62100
F995        F  0.34749716  0.74883172  0.78973114    -0.23100
F996        F  0.38544955  0.76897941  0.81703099    -0.20400
F997        F  0.39208285  0.82352787  0.79699186    -0.20100
F998        F  0.17659541  0.73644745  0.85136228    -0.20200
F999        F  0.15711113  0.74531182  0.82225270    -0.20500
F1000       F  0.19701082  0.80701977  0.84088972    -0.23200
C1001       C  0.30122117  0.50991525  0.82951870    -0.06000
C1002       C  0.33868853  0.55532083  0.83222371    -0.00100
C1003       C  0.33031256  0.59291221  0.83228267    -0.08600
C1004       C  0.28460604  0.58317294  0.83045440    -0.06000
C1005       C  0.24638878  0.53752794  0.82925682    -0.00100
C1006       C  0.25511169  0.50013036  0.82801264    -0.08500
C1007       C  0.21670510  0.45023766  0.82511566     0.61800
H1008       H  0.30824042  0.48162615  0.82897305     0.12500
H1009       H  0.27851270  0.61203788  0.83072830     0.12500
C1010       C  0.36886682  0.64336502  0.83416317     0.62100
F1011       F  0.23405219  0.42085009  0.82176897    -0.23100
F1012       F  0.19053137  0.44736252  0.80981056    -0.20400
F1013       F  0.18871583  0.43466240  0.84090163    -0.20100
F1014       F  0.40212489  0.65376330  0.82036765    -0.20200
F1015       F  0.38886538  0.65092104  0.85160494    -0.20500
F1016       F  0.35268325  0.67399223  0.83238100    -0.23200
C1017       C  0.54482943  0.81889086  0.81797308    -0.06000
C1018       C  0.51403139  0.82306524  0.83055447    -0.00100
C1019       C  0.49399393  0.79095676  0.84543785    -0.08600
C1020       C  0.50237098  0.75381114  0.84602693    -0.06000
C1021       C  0.53198681  0.74901332  0.83313005    -0.00100
C1022       C  0.55493100  0.78285965  0.81925835    -0.08500
C1023       C  0.58895597  0.78034084  0.80569364     0.61800
H1024       H  0.56080474  0.84396138  0.80687633     0.12500
H1025       H  0.48577559  0.72791449  0.85681481     0.12500
C1026       C  0.46553798  0.79627820  0.86112307     0.62100
F1027       F  0.60461004  0.81462238  0.79229234    -0.23100
F1028       F  0.56794560  0.73780178  0.79662133    -0.20400
F1029       F  0.62697285  0.78594115  0.81536954    -0.20100
F1030       F  0.42319053  0.78747078  0.85449205    -0.20200
F1031       F  0.48949479  0.84077670  0.86846152    -0.20500
F1032       F  0.45690162  0.76584306  0.87562621    -0.23200
C1033       C  0.56174117  0.27815017  0.66564639    -0.06000
C1034       C  0.52468519  0.24390056  0.65519229    -0.00100
C1035       C  0.49410559  0.25545354  0.64616890    -0.08600
C1036       C  0.50467496  0.30197193  0.64658964    -0.06000
C1037       C  0.54366182  0.33638858  0.65590818    -0.00100
C1038       C  0.57118859  0.32414413  0.66647184    -0.08500
C1039       C  0.60947769  0.35940737  0.67896254     0.61800
H1040       H  0.58398545  0.26874707  0.67288948     0.12500
H1041       H  0.48288511  0.31213614  0.63943448     0.12500
C1042       C  0.45086741  0.21962592  0.63596170     0.62100
F1043       F  0.62930770  0.33943067  0.68937330    -0.23100
F1044       F  0.59143918  0.37874816  0.69129881    -0.20400
F1045       F  0.64392224  0.39408414  0.66821524    -0.20100
F1046       F  0.42099521  0.18634770  0.64845573    -0.20200
F1047       F  0.46237874  0.19865280  0.62177464    -0.20500
F1048       F  0.42732556  0.23922561  0.62797895    -0.23200
C1049       C  0.75012912  0.50123011  0.64211424    -0.06000
C1050       C  0.74411108  0.52579089  0.65698635    -0.00100
C1051       C  0.77737915  0.54491565  0.67125638    -0.08600
C1052       C  0.81569475  0.53815443  0.67019653    -0.06000
C1053       C  0.82170991  0.51339581  0.65528683    -0.00100
C1054       C  0.78890990  0.49560658  0.64066985    -0.08500
C1055       C  0.79531959  0.47261073  0.62322576     0.61800
H1056       H  0.72404919  0.48673174  0.63134443     0.12500
H1057       H  0.84094392  0.55153253  0.68129578     0.12500
C1058       C  0.77125608  0.57018299  0.68787068     0.62100
F1059       F  0.76335245  0.46536156  0.60958749    -0.23100
F1060       F  0.78980564  0.42992797  0.62759855    -0.20400
F1061       F  0.83907107  0.50066159  0.61566779    -0.20100
F1062       F  0.72924535  0.54152421  0.69663034    -0.20200
F1063       F  0.77215787  0.60984732  0.68196523    -0.20500
F1064       F  0.80603059  0.58314718  0.70086813    -0.23200
C1065       C  0.53542570  0.58040532  0.74842305    -0.06000
C1066       C  0.52847203  0.55048884  0.76319736    -0.00100
C1067       C  0.53201175  0.51062103  0.75990566    -0.08600
C1068       C  0.54162182  0.50140191  0.74166808    -0.06000
C1069       C  0.54792907  0.53065877  0.72650657    -0.00100
C1070       C  0.54594487  0.57190517  0.73009598    -0.08500
C1071       C  0.55484941  0.60727019  0.71503828     0.61800
H1072       H  0.53247638  0.61068934  0.75146130     0.12500
H1073       H  0.54389276  0.47057142  0.73917642     0.12500
C1074       C  0.52400744  0.47709829  0.77556763     0.62100
F1075       F  0.55007598  0.64370616  0.72182706    -0.23100
F1076       F  0.52377633  0.58669540  0.70063072    -0.20400
F1077       F  0.59958427  0.62573513  0.70820738    -0.20100
F1078       F  0.48027080  0.46083476  0.78320195    -0.20200
F1079       F  0.55689703  0.49951566  0.78927094    -0.20500
F1080       F  0.52703821  0.43925365  0.76934908    -0.23200
C1081       C  0.41474974  0.13762036  0.83233053    -0.06000
C1082       C  0.37999764  0.13006116  0.81957499    -0.00100
C1083       C  0.36961001  0.09785600  0.80474425    -0.08600
C1084       C  0.39031511  0.07026047  0.80447737    -0.06000
C1085       C  0.42119305  0.07419924  0.81839857    -0.00100
C1086       C  0.43568517  0.10996696  0.83200520    -0.08500
C1087       C  0.46987233  0.11598570  0.84704432     0.61800
H1088       H  0.42183549  0.16200818  0.84371900     0.12500
H1089       H  0.37976264  0.04307458  0.79398297     0.12500
C1090       C  0.33420119  0.08857192  0.78977462     0.62100
F1091       F  0.47954650  0.15290386  0.85888710    -0.23100
F1092       F  0.51102462  0.12419738  0.83878904    -0.20400
F1093       F  0.45187644  0.07623824  0.85769273    -0.20100
F1094       F  0.31777285  0.11916809  0.79053613    -0.20200
F1095       F  0.29709325  0.04399755  0.79172883    -0.20500
F1096       F  0.35436201  0.09252011  0.77233858    -0.23200
C1097       C  0.38775949  0.37601215  0.84026183    -0.06000
C1098       C  0.40236601  0.35019811  0.82951708    -0.00100
C1099       C  0.44848629  0.37211567  0.82259894    -0.08600
C1100       C  0.47551251  0.42103642  0.82364400    -0.06000
C1101       C  0.45764714  0.44728656  0.83194061    -0.00100
C1102       C  0.41534263  0.42419956  0.84206189    -0.08500
C1103       C  0.39637335  0.44935977  0.85372512     0.61800
H1104       H  0.35319331  0.35871439  0.84637397     0.12500
H1105       H  0.50863139  0.43907908  0.81645036     0.12500
C1106       C  0.46764133  0.34415746  0.81327083     0.62100
F1107       F  0.38557115  0.43068271  0.87148128    -0.23100
F1108       F  0.35651288  0.44359575  0.84559667    -0.20400
F1109       F  0.42778065  0.49627452  0.85557178    -0.20100
F1110       F  0.44162358  0.32102345  0.79774768    -0.20200
F1111       F  0.46594035  0.31217694  0.82582122    -0.20500
F1112       F  0.51324941  0.37199061  0.80758044    -0.23200
C1113       C  0.34249920  0.20496716  0.91945948    -0.06000
C1114       C  0.39105783  0.23133366  0.91912943    -0.00100
C1115       C  0.41510056  0.24702427  0.90193732    -0.08600
C1116       C  0.38974574  0.23063399  0.88541820    -0.06000
C1117       C  0.34139363  0.20110387  0.88575435    -0.00100
C1118       C  0.31692288  0.18983851  0.90298493    -0.08500
C1119       C  0.26432552  0.16312886  0.90413462     0.61800
H1120       H  0.32459578  0.19526677  0.93282411     0.12500
H1121       H  0.40778406  0.24031013  0.87205776     0.12500
C1122       C  0.46648008  0.28264613  0.90098871     0.62100
F1123       F  0.24846837  0.16557609  0.92189412    -0.23100
F1124       F  0.24773609  0.11695293  0.89980307    -0.20400
F1125       F  0.24641651  0.18147482  0.89179564    -0.20100
F1126       F  0.49229618  0.26258100  0.90577175    -0.20200
F1127       F  0.47623632  0.31900427  0.91315540    -0.20500
F1128       F  0.47997883  0.30084488  0.88320017    -0.23200
C1129       C  0.92150266  0.31333721  0.83037468    -0.06000
C1130       C  0.93211298  0.28776726  0.81748519    -0.00100
C1131       C  0.96779221  0.31191807  0.80409897    -0.08600
C1132       C  0.99747302  0.35988256  0.80632219    -0.06000
C1133       C  0.99093601  0.38452688  0.82092570    -0.00100
C1134       C  0.95072942  0.36176911  0.83238839    -0.08500
C1135       C  0.94101215  0.38793878  0.84761105     0.61800
H1136       H  0.89391149  0.29454845  0.84047494     0.12500
H1137       H  0.02738088  0.37780538  0.79712799     0.12500
C1138       C  0.97756253  0.28761386  0.78813791     0.62100
F1139       F  0.90025810  0.35942321  0.85724601    -0.23100
F1140       F  0.93701189  0.42328871  0.83971263    -0.20400
F1141       F  0.97690351  0.40665905  0.86028904    -0.20100
F1142       F  0.94355515  0.24142151  0.78655346    -0.20200
F1143       F  0.01978743  0.29042186  0.79088089    -0.20500
F1144       F  0.97937902  0.30911603  0.77149820    -0.23200
C1145       C  0.09322693  0.22161293  0.80942734    -0.06000
C1146       C  0.06244965  0.18732337  0.82180388    -0.00100
C1147       C  0.07971337  0.16808051  0.83475529    -0.08600
C1148       C  0.12566142  0.17831459  0.83272864    -0.06000
C1149       C  0.15611706  0.21099425  0.81978786    -0.00100
C1150       C  0.14072301  0.23589561  0.80896073    -0.08500
C1151       C  0.17407599  0.27856487  0.79779116     0.61800
H1152       H  0.08008408  0.23879667  0.80082097     0.12500
H1153       H  0.13815240  0.16080501  0.84152613     0.12500
C1154       C  0.05251157  0.13797393  0.85129175     0.62100
F1155       F  0.15141024  0.29775880  0.78877879    -0.23100
F1156       F  0.19740154  0.26786305  0.78438179    -0.20400
F1157       F  0.20587908  0.31180712  0.80981840    -0.20100
F1158       F  0.05121214  0.09605657  0.84998494    -0.20200
F1159       F  0.00746016  0.12900248  0.85265251    -0.20500
F1160       F  0.07487123  0.16008391  0.86762253    -0.23200
C1161       C  0.68314858  0.04307758  0.84081326    -0.06000
C1162       C  0.71280920  0.08360643  0.83097564    -0.00100
C1163       C  0.69400222  0.10774020  0.82179796    -0.08600
C1164       C  0.64532313  0.08699192  0.82087109    -0.06000
C1165       C  0.61583558  0.04366039  0.82895605    -0.00100
C1166       C  0.63491524  0.02327077  0.84032982    -0.08500
C1167       C  0.60567599  0.97899725  0.85122733     0.61800
H1168       H  0.69773887  0.02547713  0.84830518     0.12500
H1169       H  0.63005212  0.10245072  0.81248695     0.12500
C1170       C  0.72495696  0.15334465  0.81197221     0.62100
F1171       F  0.62036326  0.98597855  0.86958047    -0.23100
F1172       F  0.61111596  0.94380880  0.84349053    -0.20400
F1173       F  0.55907946  0.96525040  0.85141734    -0.20100
F1174       F  0.75218701  0.14776636  0.79859442    -0.20200
F1175       F  0.75317236  0.18632413  0.82493766    -0.20500
F1176       F  0.69951055  0.16973066  0.80315215    -0.23200
C1177       C  0.81392312  0.20023721  0.91239850    -0.06000
C1178       C  0.85128824  0.22456768  0.92452411    -0.00100
C1179       C  0.89676833  0.23862061  0.91837643    -0.08600
C1180       C  0.90362897  0.22762843  0.90010250    -0.06000
C1181       C  0.86651304  0.20268491  0.88782855    -0.00100
C1182       C  0.82059244  0.18873383  0.89399358    -0.08500
C1183       C  0.77889236  0.16249134  0.88136841     0.61800
H1184       H  0.77946545  0.19017707  0.91753626     0.12500
H1185       H  0.93840783  0.23775401  0.89539782     0.12500
C1186       C  0.93770108  0.26396318  0.93136572     0.62100
F1187       F  0.73908364  0.15864373  0.88935763    -0.23100
F1188       F  0.77089148  0.11814936  0.87806258    -0.20400
F1189       F  0.78673821  0.18547168  0.86457870    -0.20100
F1190       F  0.93033517  0.23714396  0.94695948    -0.20200
F1191       F  0.94237471  0.30600428  0.93680208    -0.20500
F1192       F  0.97889675  0.27254151  0.92298385    -0.23200
C1193       C  0.58135895  0.20045456  0.98118275    -0.06000
C1194       C  0.58219035  0.23745200  0.99142909    -0.00100
C1195       C  0.62133477  0.26597616  0.00272881    -0.08600
C1196       C  0.65646226  0.25484330  0.00382537    -0.06000
C1197       C  0.65564460  0.21809130  0.99356213    -0.00100
C1198       C  0.61767337  0.19061681  0.98184851    -0.08500
C1199       C  0.61580996  0.15194498  0.96979100     0.61800
H1200       H  0.55196926  0.17913000  0.97236641     0.12500
H1201       H  0.68544187  0.27524392  0.01296827     0.12500
C1202       C  0.62725741  0.30831615  0.01356321     0.62100
F1203       F  0.57971675  0.13477375  0.95719819    -0.23100
F1204       F  0.60953365  0.11582756  0.98101087    -0.20400
F1205       F  0.65667269  0.16831854  0.95965678    -0.20100
F1206       F  0.59102080  0.29533906  0.02616642    -0.20200
F1207       F  0.62875038  0.34061628  0.00126588    -0.20500
F1208       F  0.66798981  0.33001463  0.02363773    -0.23200
C1209       C  0.74845699  0.65133786  0.84303329    -0.06000
C1210       C  0.77789469  0.68220428  0.82933721    -0.00100
C1211       C  0.75896234  0.68840368  0.81285097    -0.08600
C1212       C  0.71061166  0.66878828  0.81182565    -0.06000
C1213       C  0.68141906  0.64206280  0.82650377    -0.00100
C1214       C  0.70001156  0.63031450  0.84170000    -0.08500
C1215       C  0.66878619  0.59802461  0.85693337     0.61800
H1216       H  0.76377843  0.64681024  0.85548310     0.12500
H1217       H  0.69552690  0.67658790  0.80013187     0.12500
C1218       C  0.79019380  0.71768511  0.79696432     0.62100
F1219       F  0.69372908  0.59043614  0.87029295    -0.23100
F1220       F  0.63751951  0.55568372  0.84906629    -0.20400
F1221       F  0.64474460  0.61674719  0.86577214    -0.20100
F1222       F  0.81757677  0.69972183  0.79095632    -0.20200
F1223       F  0.81841651  0.76291112  0.80294962    -0.20500
F1224       F  0.76495370  0.71807799  0.78188095    -0.23200
C1225       C  0.91866726  0.95358507  0.81704359    -0.06000
C1226       C  0.87970663  0.91133773  0.82207692    -0.00100
C1227       C  0.83729455  0.91032930  0.82601308    -0.08600
C1228       C  0.83643451  0.95215820  0.82523278    -0.06000
C1229       C  0.87581817  0.99476374  0.82041434    -0.00100
C1230       C  0.91783485  0.99505567  0.81590351    -0.08500
C1231       C  0.96233497  0.03820965  0.80979482     0.61800
H1232       H  0.95082422  0.95411864  0.81418745     0.16100
H1233       H  0.80444387  0.95171841  0.82842078     0.12500
C1234       C  0.79279719  0.86580935  0.83086898     0.62100
F1235       F  0.99786699  0.02938950  0.80577500    -0.23100
F1236       F  0.97732508  0.07059010  0.82404370    -0.20400
F1237       F  0.95488612  0.05617730  0.79380364    -0.20100
F1238       F  0.79625143  0.85145854  0.84850546    -0.20200
F1239       F  0.78476241  0.83152358  0.81786136    -0.20500
F1240       F  0.75463759  0.87174350  0.83091401    -0.23200
C1241       C  0.06815178  0.95082373  0.82675087    -0.06000
C1242       C  0.07567989  0.91403721  0.82193474    -0.00100
C1243       C  0.12107835  0.92440970  0.81658673    -0.08600
C1244       C  0.15613513  0.97124004  0.81523815    -0.06000
C1245       C  0.14750210  0.00767345  0.81886340    -0.00100
C1246       C  0.10298842  0.99745563  0.82512242    -0.08500
C1247       C  0.09203314  0.03522465  0.83031576     0.61800
H1248       H  0.03375010  0.94274790  0.83117774     0.12500
H1249       H  0.19085141  0.97997550  0.81098708     0.12500
C1250       C  0.13295834  0.88699561  0.81198700     0.62100
F1251       F  0.04785890  0.01701817  0.83785432    -0.23100
F1252       F  0.09468535  0.05998963  0.81456187    -0.20400
F1253       F  0.12315412  0.06490774  0.84347251    -0.20100
F1254       F  0.10795123  0.86122352  0.79668440    -0.20200
F1255       F  0.12285589  0.85838027  0.82725767    -0.20500
F1256       F  0.17953284  0.90547196  0.80770849    -0.23200
C1257       C  0.99393547  0.65268929  0.84170806    -0.06000
C1258       C  0.97239869  0.65832575  0.82609164    -0.00100
C1259       C  0.96678626  0.63202224  0.80964800    -0.08600
C1260       C  0.98706073  0.60408110  0.80870571    -0.06000
C1261       C  0.01321002  0.60258699  0.82351794    -0.00100
C1262       C  0.01462974  0.62489682  0.84068335    -0.08500
C1263       C  0.04051244  0.62172457  0.85730404     0.61800
H1264       H  0.99766520  0.67309567  0.85416977     0.12500
H1265       H  0.98650059  0.58668612  0.79570521     0.12500
C1266       C  0.94222640  0.63605940  0.79273148     0.62100
F1267       F  0.03664249  0.64493297  0.87281270    -0.23100
F1268       F  0.08703605  0.64085987  0.85289557    -0.20400
F1269       F  0.02242539  0.57570036  0.86198886    -0.20100
F1270       F  0.96631919  0.68071920  0.78586128    -0.20200
F1271       F  0.89794492  0.62567600  0.79784334    -0.20500
F1272       F  0.93871325  0.60590599  0.77848778    -0.23200
C1273       C  0.61932443  0.42530720  0.98165133    -0.06000
C1274       C  0.58210544  0.43229838  0.98616128    -0.00100
C1275       C  0.59204161  0.47635183  0.99326162    -0.08600
C1276       C  0.63865157  0.50995718  0.99699351    -0.06000
C1277       C  0.67518523  0.50088382  0.99420566    -0.00100
C1278       C  0.66548578  0.45827608  0.98587274    -0.08500
C1279       C  0.70342973  0.44719975  0.98144240     0.61800
H1280       H  0.61150563  0.39200616  0.97587117     0.12500
H1281       H  0.64694997  0.54357841  0.00256613     0.12500
C1282       C  0.55412942  0.48797652  0.99727412     0.62100
F1283       F  0.68670763  0.40622900  0.97137630    -0.23100
F1284       F  0.72181630  0.44257860  0.99791666    -0.20400
F1285       F  0.73802713  0.48223508  0.97085165    -0.20100
F1286       F  0.52350386  0.45878416  0.01070752    -0.20200
F1287       F  0.53032641  0.48339643  0.98099974    -0.20500
F1288       F  0.57198619  0.53297264  0.00381586    -0.23200
C1289       C  0.83460044  0.46382560  0.98613658    -0.06000
C1290       C  0.87529611  0.50006384  0.99398773    -0.00100
C1291       C  0.90875260  0.49004933  0.00123159    -0.08600
C1292       C  0.89688430  0.44325436  0.00262442    -0.06000
C1293       C  0.85401942  0.40694819  0.99648750    -0.00100
C1294       C  0.82389190  0.41747136  0.98685947    -0.08500
C1295       C  0.78133165  0.38014124  0.97691124     0.61800
H1296       H  0.81019767  0.47196622  0.97997692     0.12500
H1297       H  0.92084879  0.43448981  0.00876362     0.12500
C1298       C  0.95638847  0.52780774  0.00767378     0.62100
F1299       F  0.76144974  0.39895720  0.96587886    -0.23100
F1300       F  0.74873754  0.35138038  0.98988838    -0.20400
F1301       F  0.79345034  0.35429909  0.96532893    -0.20100
F1302       F  0.95246100  0.55240827  0.02260253    -0.20200
F1303       F  0.97934305  0.55777325  0.99306387    -0.20500
F1304       F  0.98346828  0.50969936  0.01332756    -0.23200
C1305       C  0.86756229  0.68123447  0.89463999    -0.06000
C1306       C  0.89593123  0.72939949  0.89344263    -0.00100
C1307       C  0.91632970  0.75581566  0.90982746    -0.08600
C1308       C  0.90352161  0.73330663  0.92722775    -0.06000
C1309       C  0.87141966  0.68553688  0.92859208    -0.00100
C1310       C  0.85509596  0.65854136  0.91192002    -0.08500
C1311       C  0.82418070  0.60611086  0.91204231     0.61800
H1312       H  0.85312615  0.66156063  0.88187016     0.12500
H1313       H  0.91704606  0.75342665  0.93995772     0.12500
C1314       C  0.95181409  0.80721836  0.90893749     0.62100
F1315       F  0.82258044  0.58685855  0.89457879    -0.23100
F1316       F  0.77948912  0.59442986  0.91709478    -0.20400
F1317       F  0.84090578  0.58680008  0.92447069    -0.20100
F1318       F  0.93042642  0.83192918  0.90434646    -0.20200
F1319       F  0.98536536  0.81487750  0.89559488    -0.20500
F1320       F  0.97379175  0.82399194  0.92589896    -0.23200
C1321       C  0.89993921  0.06925345  0.72447562    -0.06000
C1322       C  0.87169444  0.02052661  0.72353998    -0.00100
C1323       C  0.85970193  0.99464700  0.74018419    -0.08600
C1324       C  0.87274766  0.01877625  0.75733585    -0.06000
C1325       C  0.89483708  0.06757262  0.75833351    -0.00100
C1326       C  0.91155332  0.09343392  0.74172603    -0.08500
C1327       C  0.93886426  0.14597778  0.74222449     0.61800
H1328       H  0.90938712  0.08845949  0.71151172     0.12500
H1329       H  0.86135209  0.99951602  0.77027951     0.12500
C1330       C  0.82940023  0.94217569  0.73990716     0.62100
F1331       F  0.95117780  0.16447654  0.72444657    -0.23100
F1332       F  0.97901993  0.16073336  0.75227307    -0.20400
F1333       F  0.91276648  0.16290224  0.75066892    -0.20100
F1334       F  0.85160028  0.92305665  0.72994201    -0.20200
F1335       F  0.78751273  0.92941228  0.73154813    -0.20500
F1336       F  0.82009798  0.92385006  0.75774503    -0.23200
C1337       C  0.70844613  0.76299790  0.67614373    -0.06000
C1338       C  0.68617615  0.78018851  0.66517084    -0.00100
C1339       C  0.64197870  0.74898888  0.65778840    -0.08600
C1340       C  0.62432869  0.70081637  0.65958360    -0.06000
C1341       C  0.65021510  0.68384947  0.66828681    -0.00100
C1342       C  0.69078486  0.71525492  0.67816659    -0.08500
C1343       C  0.71895018  0.69981487  0.68921921     0.61800
H1344       H  0.74225038  0.78720131  0.68179318     0.12500
H1345       H  0.59256401  0.67638732  0.65260734     0.12500
C1346       C  0.61527383  0.76671059  0.64713508     0.62100
F1347       F  0.74007177  0.72963445  0.70417812    -0.23100
F1348       F  0.75285500  0.70015718  0.67776333    -0.20400
F1349       F  0.69138168  0.65579129  0.69635889    -0.20100
F1350       F  0.63970102  0.78966897  0.63123706    -0.20200
F1351       F  0.60881177  0.79702297  0.65841737    -0.20500
F1352       F  0.57214936  0.73099679  0.64177359    -0.23200
C1353       C  0.66569913  0.01063823  0.64280713    -0.06000
C1354       C  0.65637867  0.97498307  0.65528715    -0.00100
C1355       C  0.61492099  0.95520367  0.66611595    -0.08600
C1356       C  0.58797098  0.97698769  0.66611507    -0.06000
C1357       C  0.60096009  0.01647027  0.65523365    -0.00100
C1358       C  0.63797765  0.03096570  0.64225970    -0.08500
C1359       C  0.65263478  0.07126020  0.62909727     0.61800
H1360       H  0.69682597  0.02486107  0.63418184     0.12500
H1361       H  0.55931721  0.96613481  0.67589407     0.12500
C1362       C  0.60085866  0.91337902  0.67836198     0.62100
F1363       F  0.66106486  0.05925908  0.61147298    -0.23100
F1364       F  0.69289340  0.10911634  0.63559303    -0.20400
F1365       F  0.61898235  0.08347233  0.62740684    -0.20100
F1366       F  0.63480999  0.92323794  0.69139424    -0.20200
F1367       F  0.59479895  0.87644597  0.66730052    -0.20500
F1368       F  0.55964043  0.90013503  0.68787167    -0.23200
C1369       C  0.68678369  0.89445177  0.56727376    -0.06000
C1370       C  0.66951428  0.84892053  0.56049675    -0.00100
C1371       C  0.67321391  0.81611667  0.57171574    -0.08600
C1372       C  0.69411600  0.83048036  0.58928952    -0.06000
C1373       C  0.71171064  0.87594534  0.59583904    -0.00100
C1374       C  0.70823756  0.90871999  0.58478730    -0.08500
C1375       C  0.72878464  0.95880244  0.59111070     0.61800
H1376       H  0.68385048  0.91911494  0.55857980     0.12500
H1377       H  0.69764842  0.80633178  0.59809250     0.12500
C1378       C  0.65740795  0.76685272  0.56510752     0.62100
F1379       F  0.72545607  0.98591372  0.57744497    -0.23100
F1380       F  0.77518741  0.97725772  0.59516832    -0.20400
F1381       F  0.70558476  0.96101856  0.60692111    -0.20100
F1382       F  0.67777812  0.76765371  0.54802065    -0.20200
F1383       F  0.60972928  0.74211414  0.56346449    -0.20500
F1384       F  0.66955157  0.74337587  0.57750831    -0.23200
C1385       C  0.00067803  0.87486404  0.72667479    -0.06000
C1386       C  0.04949158  0.89681913  0.72603665    -0.00100
C1387       C  0.07444619  0.91203719  0.74289982    -0.08600
C1388       C  0.04945133  0.89818414  0.75987195    -0.06000
C1389       C  0.00095228  0.86878368  0.76032477    -0.00100
C1390       C  0.97575868  0.85987553  0.74366456    -0.08500
C1391       C  0.92333288  0.83111047  0.74368372     0.61800
H1392       H  0.98209327  0.86477577  0.71357578     0.12500
H1393       H  0.06801300  0.90624933  0.77295323     0.12500
C1394       C  0.12698419  0.93947861  0.74303157     0.62100
F1395       F  0.90561837  0.82789261  0.72603570    -0.23100
F1396       F  0.90517808  0.85134862  0.75545343    -0.20400
F1397       F  0.90914639  0.78675976  0.74977712    -0.20100
F1398       F  0.14236711  0.98043581  0.73352267    -0.20200
F1399       F  0.14468430  0.91418072  0.73449000    -0.20500
F1400       F  0.14416483  0.95045540  0.76103200    -0.23200
C1401       C  0.31184614  0.92731644  0.65150299    -0.06000
C1402       C  0.28542221  0.93817650  0.66374533    -0.00100
C1403       C  0.30768000  0.97255318  0.67768798    -0.08600
C1404       C  0.35618167  0.00052565  0.67693155    -0.06000
C1405       C  0.38226468  0.99353019  0.66306014    -0.00100
C1406       C  0.36049364  0.95437002  0.65110770    -0.08500
C1407       C  0.38835993  0.94360258  0.63708500     0.61800
H1408       H  0.29399999  0.90057630  0.64100192     0.12500
H1409       H  0.37371779  0.03004870  0.68629341     0.12500
C1410       C  0.27980819  0.98087418  0.69259788     0.62100
F1411       F  0.36064758  0.90302873  0.62723981    -0.23100
F1412       F  0.42139331  0.93839455  0.64640129    -0.20400
F1413       F  0.41016857  0.97940431  0.62442330    -0.20100
F1414       F  0.25058767  0.93963804  0.70158140    -0.20200
F1415       F  0.25356237  0.99725685  0.68459828    -0.20500
F1416       F  0.30809518  0.01286135  0.70587232    -0.23200
C1417       C  0.09058349  0.64988035  0.66410275    -0.06000
C1418       C  0.04832622  0.62142383  0.65506294    -0.00100
C1419       C  0.02910765  0.64228457  0.64401720    -0.08600
C1420       C  0.04822303  0.69041868  0.64494890    -0.06000
C1421       C  0.08712735  0.71864130  0.65585324    -0.00100
C1422       C  0.11108582  0.69873091  0.66436183    -0.08500
C1423       C  0.15659932  0.72843847  0.67434967     0.61800
H1424       H  0.10509971  0.63344647  0.67236902     0.12500
H1425       H  0.03100921  0.70591108  0.63779790     0.12500
C1426       C  0.98604636  0.61485571  0.63229831     0.62100
F1427       F  0.17228728  0.70178553  0.68267788    -0.23100
F1428       F  0.15152659  0.75507305  0.68814078    -0.20400
F1429       F  0.18981286  0.75722807  0.66153646    -0.20100
F1430       F  0.95001275  0.61878040  0.64010714    -0.20200
F1431       F  0.97266838  0.56841849  0.63088054    -0.20500
F1432       F  0.99470700  0.63274900  0.61440302    -0.23200
C1433       C  0.94547399  0.84126982  0.67050112    -0.06000
C1434       C  0.98608650  0.87139904  0.66055807    -0.00100
C1435       C  0.98824357  0.90904847  0.65065549    -0.08600
C1436       C  0.95057498  0.91671207  0.65206181    -0.06000
C1437       C  0.91081169  0.88746908  0.66254119    -0.00100
C1438       C  0.90755826  0.84856505  0.67161941    -0.08500
C1439       C  0.86498815  0.81611530  0.68308782     0.61800
H1440       H  0.94453266  0.81314134  0.67821738     0.12500
H1441       H  0.95180318  0.94565453  0.64487023     0.12500
C1442       C  0.02958776  0.94077046  0.63842691     0.62100
F1443       F  0.87065663  0.78307401  0.69221226    -0.23100
F1444       F  0.82712018  0.79308729  0.67155055    -0.20400
F1445       F  0.85619611  0.84131901  0.69638948    -0.20100
F1446       F  0.04352595  0.91486368  0.62783421    -0.20200
F1447       F  0.06582644  0.97205535  0.64941254    -0.20500
F1448       F  0.01887824  0.96574558  0.62622515    -0.23200
C1449       C  0.45589164  0.83323919  0.47801941    -0.06000
C1450       C  0.48680863  0.86347058  0.49163618    -0.00100
C1451       C  0.47160549  0.88511112  0.50473631    -0.08600
C1452       C  0.42560433  0.87557547  0.50361261    -0.06000
C1453       C  0.39510298  0.84596073  0.48971380    -0.00100
C1454       C  0.41060643  0.82469049  0.47650852    -0.08500
C1455       C  0.38073872  0.79461672  0.46040829     0.61800
H1456       H  0.46828460  0.81750172  0.46786721     0.12500
H1457       H  0.41302192  0.89126048  0.51370631     0.12500
C1458       C  0.50296702  0.91685822  0.52003536     0.62100
F1459       F  0.40617000  0.78529867  0.44738448    -0.23100
F1460       F  0.36164267  0.81706614  0.45118482    -0.20400
F1461       F  0.34575343  0.75267408  0.46713179    -0.20100
F1462       F  0.53885753  0.95666959  0.51224268    -0.20200
F1463       F  0.52090066  0.89433704  0.52996808    -0.20500
F1464       F  0.47936138  0.92990890  0.53250440    -0.23200
C1465       C  0.17841515  0.82040805  0.57139522    -0.06000
C1466       C  0.21716378  0.85620478  0.56225259    -0.00100
C1467       C  0.24359430  0.89999599  0.57106982    -0.08600
C1468       C  0.22857982  0.90702104  0.58850440    -0.06000
C1469       C  0.18929716  0.87170279  0.59755122    -0.00100
C1470       C  0.16455770  0.82698304  0.58929729    -0.08500
C1471       C  0.12383126  0.78668768  0.59911146     0.61800
H1472       H  0.15954613  0.78698102  0.56445966     0.12500
H1473       H  0.24798003  0.94042229  0.59542043     0.12500
C1474       C  0.28701531  0.93951428  0.56216553     0.62100
F1475       F  0.10254995  0.74762794  0.58776514    -0.23100
F1476       F  0.09110218  0.79869413  0.60418031    -0.20400
F1477       F  0.13908960  0.77519483  0.61491328    -0.20100
F1478       F  0.27778008  0.94707244  0.54419431    -0.20200
F1479       F  0.32186915  0.92866358  0.56165423    -0.20500
F1480       F  0.30320313  0.98062093  0.57212524    -0.23200
C1481       C  0.16433716  0.18916869  0.75507239    -0.06000
C1482       C  0.19538838  0.17231534  0.75531610    -0.00100
C1483       C  0.21136368  0.16336000  0.73835907    -0.08600
C1484       C  0.20206254  0.17892077  0.72180854    -0.06000
C1485       C  0.17794339  0.20349893  0.72189035    -0.00100
C1486       C  0.15602766  0.20613133  0.73853618    -0.08500
C1487       C  0.12793667  0.23035333  0.73919059     0.61800
H1488       H  0.15060186  0.19340305  0.76828575     0.12500
H1489       H  0.21760051  0.17595465  0.70884473     0.12500
C1490       C  0.24141629  0.14126666  0.73798257     0.62100
F1491       F  0.11014699  0.22937690  0.75691240    -0.23100
F1492       F  0.09115267  0.20862817  0.72701597    -0.20400
F1493       F  0.15567130  0.27622329  0.73407434    -0.20100
F1494       F  0.21902629  0.09965378  0.74744632    -0.20200
F1495       F  0.28327744  0.17044038  0.74650429    -0.20500
F1496       F  0.25033877  0.13234909  0.71988062    -0.23200
C1497       C  0.10385189  0.37442743  0.67498048    -0.06000
C1498       C  0.13504877  0.38899234  0.65985676    -0.00100
C1499       C  0.14110131  0.42632253  0.64875809    -0.08600
C1500       C  0.11108290  0.44396655  0.65164830    -0.06000
C1501       C  0.07494656  0.42416483  0.66489302    -0.00100
C1502       C  0.07306358  0.39111392  0.67762973    -0.08500
C1503       C  0.03764042  0.37213016  0.69346114     0.61800
H1504       H  0.10004925  0.34592276  0.68336934     0.12500
H1505       H  0.11259574  0.46993585  0.64229965     0.12500
C1506       C  0.17693522  0.44487584  0.63313067     0.62100
F1507       F  0.04613906  0.34523130  0.70552075    -0.23100
F1508       F  0.99360096  0.34484223  0.68640165    -0.20400
F1509       F  0.03940224  0.40846732  0.70368121    -0.20100
F1510       F  0.16571216  0.41111869  0.61955446    -0.20200
F1511       F  0.22000414  0.45756030  0.64025377    -0.20500
F1512       F  0.17960583  0.48331963  0.62480069    -0.23200
C1513       C  0.17051581  0.12515023  0.67649744    -0.06000
C1514       C  0.19871858  0.15520366  0.66230074    -0.00100
C1515       C  0.22167451  0.14081456  0.64954348    -0.08600
C1516       C  0.21353337  0.09526939  0.65099080    -0.06000
C1517       C  0.18458598  0.06484661  0.66513693    -0.00100
C1518       C  0.16427259  0.08086153  0.67861379    -0.08500
C1519       C  0.13774405  0.05263920  0.69562671     0.61800
H1520       H  0.15362492  0.13706646  0.68629923     0.12500
H1521       H  0.22941674  0.08295617  0.64087787     0.12500
C1522       C  0.25310368  0.17266617  0.63424084     0.62100
F1523       F  0.13051942  0.07909986  0.70885412    -0.23100
F1524       F  0.16285980  0.03542103  0.70404997    -0.20400
F1525       F  0.09485115  0.01651653  0.69036752    -0.20100
F1526       F  0.29175600  0.20985839  0.64209854    -0.20200
F1527       F  0.22951499  0.18885736  0.62396134    -0.20500
F1528       F  0.26810066  0.15012926  0.62210686    -0.23200
C1529       C  0.96899064  0.16717135  0.66317512    -0.06000
C1530       C  0.00622857  0.15900733  0.66116091    -0.00100
C1531       C  0.99701096  0.11400134  0.65608452    -0.08600
C1532       C  0.95065085  0.07818905  0.65463281    -0.06000
C1533       C  0.91295300  0.08518946  0.65829732    -0.00100
C1534       C  0.92238395  0.13120040  0.66180068    -0.08500
C1535       C  0.88414476  0.14284329  0.66439337     0.61800
H1536       H  0.97682549  0.20220664  0.66629730     0.12500
H1537       H  0.94358678  0.04350910  0.65130758     0.12500
C1538       C  0.03567340  0.10363390  0.65177307     0.62100
F1539       F  0.90162129  0.19015774  0.66597300    -0.23100
F1540       F  0.85893750  0.12248405  0.68049931    -0.20400
F1541       F  0.85521818  0.12711650  0.64907649    -0.20100
F1542       F  0.06069959  0.10899972  0.66775757    -0.20200
F1543       F  0.06483432  0.13341942  0.63810839    -0.20500
F1544       F  0.01872799  0.05870712  0.64529077    -0.23200
C1545       C  0.43196403  0.42481242  0.64122550    -0.06000
C1546       C  0.44803065  0.46262738  0.65358676    -0.00100
C1547       C  0.41688027  0.47618812  0.66061096    -0.08600
C1548       C  0.36914538  0.44730016  0.65720581    -0.06000
C1549       C  0.35251493  0.40513709  0.64743629    -0.00100
C1550       C  0.38452057  0.39569471  0.63791749    -0.08500
C1551       C  0.37076187  0.35468958  0.62478325     0.61800
H1552       H  0.45635039  0.41533614  0.63547627     0.12500
H1553       H  0.34438757  0.45455426  0.66414211     0.12500
C1554       C  0.43369359  0.51813538  0.67326376     0.62100
F1555       F  0.39120466  0.37096619  0.60745896    -0.23100
F1556       F  0.32350218  0.32804297  0.62223871    -0.20400
F1557       F  0.38639227  0.32662421  0.63173000    -0.20100
F1558       F  0.44774210  0.50941785  0.69003825    -0.20200
F1559       F  0.39928723  0.52878957  0.67691226    -0.20500
F1560       F  0.47061903  0.55606521  0.66482245    -0.23200
C1561       C  0.25477756  0.61786295  0.49834590    -0.06000
C1562       C  0.22134575  0.57708087  0.48947996    -0.00100
C1563       C  0.17705826  0.57125918  0.48577570    -0.08600
C1564       C  0.16893359  0.60783761  0.49001454    -0.06000
C1565       C  0.20330338  0.64970618  0.49786950    -0.00100
C1566       C  0.24562736  0.65334980  0.50343554    -0.08500
C1567       C  0.28130796  0.69335877  0.51514824     0.61800
H1568       H  0.28763170  0.62115058  0.50210525     0.12500
H1569       H  0.13648965  0.60503626  0.48603026     0.12500
C1570       C  0.13899050  0.52740502  0.47666494     0.62100
F1571       F  0.29638651  0.67649594  0.52930716    -0.23100
F1572       F  0.26323554  0.71847819  0.52353305    -0.20400
F1573       F  0.31886081  0.72242362  0.50405971    -0.20100
F1574       F  0.12225112  0.49133487  0.48923705    -0.20200
F1575       F  0.15619918  0.51642258  0.46089185    -0.20500
F1576       F  0.10209302  0.53227647  0.47124659    -0.23200
C1577       C  0.50376403  0.64233545  0.48864282    -0.06000
C1578       C  0.49517672  0.67931667  0.48686858    -0.00100
C1579       C  0.44942820  0.67060325  0.48994467    -0.08600
C1580       C  0.41369201  0.62465168  0.49278611    -0.06000
C1581       C  0.42151878  0.58682458  0.49270008    -0.00100
C1582       C  0.46806810  0.59642628  0.49198615    -0.08500
C1583       C  0.48080904  0.55923381  0.49482365     0.61800
H1584       H  0.53910191  0.64958327  0.48716601     0.12500
H1585       H  0.37852645  0.61785394  0.49423457     0.12500
C1586       C  0.43782165  0.70919788  0.49049405     0.62100
F1587       F  0.52793338  0.57824469  0.49754415    -0.23100
F1588       F  0.46867334  0.53035510  0.47933108    -0.20400
F1589       F  0.45820986  0.53360591  0.51053619    -0.20100
F1590       F  0.44462102  0.72863904  0.47296502    -0.20200
F1591       F  0.46562815  0.74282135  0.50335019    -0.20500
F1592       F  0.39215987  0.69321132  0.49571674    -0.23200
C1593       C  0.16072371  0.35657417  0.58388493    -0.06000
C1594       C  0.19147932  0.34397073  0.59110889    -0.00100
C1595       C  0.23252306  0.35453632  0.58116324    -0.08600
C1596       C  0.24086418  0.37691348  0.56391829    -0.06000
C1597       C  0.21090731  0.39102633  0.55700067    -0.00100
C1598       C  0.17034393  0.38148294  0.56726486    -0.08500
C1599       C  0.13723621  0.39733182  0.56101497     0.61800
H1600       H  0.12974819  0.34835553  0.59189653     0.12500
H1601       H  0.27195498  0.38523338  0.55599202     0.12500
C1602       C  0.26806153  0.34380709  0.58884652     0.62100
F1603       F  0.09837785  0.38058320  0.57249472    -0.23100
F1604       F  0.12236801  0.38175757  0.54303825    -0.20400
F1605       F  0.15929722  0.44519840  0.56160937    -0.20100
F1606       F  0.24660653  0.29889977  0.59546772    -0.20200
F1607       F  0.29153063  0.37462066  0.60321503    -0.20500
F1608       F  0.30014964  0.34818047  0.57532764    -0.23200
C1609       C  0.49662843  0.32920102  0.06488837    -0.06000
C1610       C  0.52536378  0.35771164  0.05073651    -0.00100
C1611       C  0.56029617  0.40374799  0.05504250    -0.08600
C1612       C  0.56212826  0.42126496  0.07319656    -0.06000
C1613       C  0.52981891  0.39424161  0.08698539    -0.00100
C1614       C  0.49692513  0.34649620  0.08287282    -0.08500
C1615       C  0.45971785  0.31348159  0.09657099     0.61800
H1616       H  0.46997219  0.29435377  0.06108577     0.12500
H1617       H  0.58775878  0.45698494  0.07634831     0.12500
C1618       C  0.59519184  0.43589562  0.04080432     0.62100
F1619       F  0.43776616  0.26796092  0.09026981    -0.23100
F1620       F  0.42613815  0.32578946  0.09896683    -0.20400
F1621       F  0.47893358  0.31435815  0.11356078    -0.20100
F1622       F  0.58530411  0.47015269  0.03651450    -0.20200
F1623       F  0.59506612  0.41257760  0.02468448    -0.20500
F1624       F  0.63927418  0.45652937  0.04816518    -0.23200
C1625       C  0.41702210  0.56662986  0.40325259    -0.06000
C1626       C  0.38494795  0.54946686  0.38876204    -0.00100
C1627       C  0.33682555  0.52864950  0.39309953    -0.08600
C1628       C  0.32240048  0.52002483  0.41194418    -0.06000
C1629       C  0.35444869  0.53178127  0.42631635    -0.00100
C1630       C  0.40258361  0.55867167  0.42204952    -0.08500
C1631       C  0.43922358  0.57713518  0.43702234     0.61800
H1632       H  0.45362649  0.58304431  0.39980487     0.12500
H1633       H  0.28580597  0.50094349  0.41545289     0.12500
C1634       C  0.30075099  0.51553934  0.37799869     0.62100
F1635       F  0.47964530  0.61551431  0.43079099    -0.23100
F1636       F  0.44916412  0.54321492  0.44189959    -0.20400
F1637       F  0.42387232  0.59074903  0.45252871    -0.20100
F1638       F  0.29704629  0.47920487  0.36725306    -0.20200
F1639       F  0.31331305  0.55342560  0.36674858    -0.20500
F1640       F  0.25732305  0.50190497  0.38552026    -0.23200
C1641       C  0.57221247  0.57196692  0.25122346    -0.06000
C1642       C  0.52782809  0.54170986  0.25836565    -0.00100
C1643       C  0.49660877  0.50194020  0.24803220    -0.08600
C1644       C  0.51107318  0.49427447  0.23047408    -0.06000
C1645       C  0.55544984  0.52483966  0.22317412    -0.00100
C1646       C  0.58700506  0.56420178  0.23379823    -0.08500
C1647       C  0.63543479  0.59883342  0.22672462     0.61800
H1648       H  0.59535678  0.60201926  0.25953834     0.12500
H1649       H  0.48750969  0.46444212  0.22215101     0.12500
C1650       C  0.44772770  0.46907207  0.25508777     0.62100
F1651       F  0.65810137  0.63650867  0.23869555    -0.23100
F1652       F  0.63292499  0.61546633  0.20944855    -0.20400
F1653       F  0.66185966  0.57768946  0.22524530    -0.20100
F1654       F  0.42556422  0.49369958  0.25929936    -0.20200
F1655       F  0.44922396  0.44668166  0.27093566    -0.20500
F1656       F  0.42159362  0.43554660  0.24189740    -0.23200
C1657       C  0.86999664  0.50725358  0.08290458    -0.06000
C1658       C  0.86782410  0.53425407  0.09761053    -0.00100
C1659       C  0.84582738  0.56079751  0.09433944    -0.08600
C1660       C  0.83369159  0.56478210  0.07599346    -0.06000
C1661       C  0.84162674  0.54256157  0.06095871    -0.00100
C1662       C  0.85636093  0.51026684  0.06468128    -0.08500
C1663       C  0.85813140  0.47815114  0.05000791     0.61800
H1664       H  0.88428023  0.48501784  0.08543833     0.12500
H1665       H  0.82142812  0.58849767  0.07304830     0.12500
C1666       C  0.83330123  0.58361901  0.11003237     0.62100
F1667       F  0.83165224  0.43284063  0.05599687    -0.23100
F1668       F  0.90333612  0.48811567  0.04757003    -0.20400
F1669       F  0.84082572  0.48154405  0.03309207    -0.20100
F1670       F  0.87248418  0.62043995  0.11768810    -0.20200
F1671       F  0.80898091  0.55095778  0.12347119    -0.20500
F1672       F  0.80522609  0.60024717  0.10400110    -0.23200
C1673       C  0.75537364  0.56295829  0.15812362    -0.06000
C1674       C  0.72084159  0.51951094  0.15104631    -0.00100
C1675       C  0.72975077  0.48216878  0.15093140    -0.08600
C1676       C  0.77339980  0.49063604  0.15677711    -0.06000
C1677       C  0.80960907  0.53532753  0.16181952    -0.00100
C1678       C  0.79915031  0.57133800  0.16384794    -0.08500
C1679       C  0.83381279  0.61898973  0.17141152     0.61800
H1680       H  0.74843571  0.59131639  0.15883321     0.12500
H1681       H  0.78059402  0.46251749  0.15588377     0.12500
C1682       C  0.69457648  0.43385302  0.14406976     0.62100
F1683       F  0.81151950  0.64102657  0.17899313    -0.23100
F1684       F  0.85985146  0.61544550  0.18546114    -0.20400
F1685       F  0.86280548  0.64605295  0.15712399    -0.20100
F1686       F  0.68529474  0.43584305  0.12543890    -0.20200
F1687       F  0.65428141  0.41654120  0.15461136    -0.20500
F1688       F  0.71046324  0.40291743  0.14548311    -0.23200
C1689       C  0.19569593  0.65643626  0.40775746    -0.06000
C1690       C  0.19478770  0.68512324  0.39382102    -0.00100
C1691       C  0.21226371  0.73329082  0.39817022    -0.08600
C1692       C  0.22604578  0.74912514  0.41649992    -0.06000
C1693       C  0.22036142  0.71882409  0.43073604    -0.00100
C1694       C  0.20801485  0.67258467  0.42627695    -0.08500
C1695       C  0.20287006  0.63871267  0.44119919     0.61800
H1696       H  0.18292829  0.62018183  0.40455778     0.12500
H1697       H  0.23563919  0.78433366  0.42038443     0.12500
C1698       C  0.21192387  0.76796104  0.38468116     0.62100
F1699       F  0.21267475  0.60590040  0.43395061    -0.23100
F1700       F  0.15780630  0.61650519  0.44790839    -0.20400
F1701       F  0.23305656  0.66129996  0.45575775    -0.20100
F1702       F  0.16741758  0.76042066  0.38321750    -0.20200
F1703       F  0.22794356  0.76402278  0.36736861    -0.20500
F1704       F  0.24022933  0.81333633  0.39063274    -0.23200
C1705       C  0.04699145  0.50782710  0.25255762    -0.06000
C1706       C  0.05232208  0.54672034  0.26249358    -0.00100
C1707       C  0.03584120  0.57447387  0.25468601    -0.08600
C1708       C  0.01389863  0.56158240  0.23717070    -0.06000
C1709       C  0.00738951  0.52180192  0.22751830    -0.00100
C1710       C  0.02449837  0.49452343  0.23525565    -0.08500
C1711       C  0.02006251  0.45203035  0.22523846     0.61800
H1712       H  0.05975809  0.48704959  0.25875147     0.12500
H1713       H  0.00088175  0.58215732  0.23098132     0.12500
C1714       C  0.04156782  0.61762969  0.26456572     0.62100
F1715       F  0.04538730  0.43522410  0.23386436    -0.23100
F1716       F  0.03630531  0.46303517  0.20707577    -0.20400
F1717       F  0.97414831  0.41709584  0.22511292    -0.20100
F1718       F  0.08626247  0.64434678  0.27114427    -0.20200
F1719       F  0.01055722  0.60484391  0.27939097    -0.20500
F1720       F  0.03326162  0.64492391  0.25266789    -0.23200
C1721       C  0.32548981  0.58093809  0.32453997    -0.06000
C1722       C  0.31763947  0.53522735  0.32352407    -0.00100
C1723       C  0.27102178  0.49791721  0.32333187    -0.08600
C1724       C  0.23501729  0.50771405  0.32651064    -0.06000
C1725       C  0.24342567  0.55318730  0.32924298    -0.00100
C1726       C  0.28950151  0.59070392  0.32735593    -0.08500
C1727       C  0.30121763  0.64100050  0.32822312     0.61800
H1728       H  0.36073894  0.60967034  0.32396540     0.12500
H1729       H  0.19955530  0.47933473  0.32717279     0.12500
C1730       C  0.25849505  0.44799386  0.31960531     0.62100
F1731       F  0.34740657  0.67155497  0.32405526    -0.23100
F1732       F  0.29248752  0.65138944  0.34605840    -0.20400
F1733       F  0.27486714  0.64822509  0.31544459    -0.20100
F1734       F  0.26974307  0.43058411  0.33477993    -0.20200
F1735       F  0.28198342  0.44586057  0.30385286    -0.20500
F1736       F  0.21156251  0.41954547  0.31640684    -0.23200
C1737       C  0.72171965  0.23138046  0.09206836    -0.06000
C1738       C  0.67309850  0.20263713  0.09328930    -0.00100
C1739       C  0.64688881  0.19086441  0.07675094    -0.08600
C1740       C  0.67061890  0.20478600  0.05944142    -0.06000
C1741       C  0.71948739  0.22868118  0.05814427    -0.00100
C1742       C  0.74551016  0.24466826  0.07474025    -0.08500
C1743       C  0.79805086  0.27258721  0.07418372     0.61800
H1744       H  0.74137112  0.24027884  0.10486898     0.12500
H1745       H  0.65109210  0.19368087  0.04658043     0.12500
C1746       C  0.59450394  0.16079748  0.07729946     0.62100
F1747       F  0.81660036  0.28471583  0.09194253    -0.23100
F1748       F  0.81246185  0.31296529  0.06430074    -0.20400
F1749       F  0.81530740  0.24696143  0.06557100    -0.20100
F1750       F  0.57591303  0.18349718  0.08726135    -0.20200
F1751       F  0.58174125  0.11908610  0.08584759    -0.20500
F1752       F  0.57577985  0.15117107  0.05954381    -0.23200
C1753       C  0.74597130  0.28813849  0.14073238    -0.06000
C1754       C  0.74218031  0.25757143  0.15488320    -0.00100
C1755       C  0.77756083  0.27204829  0.16821335    -0.08600
C1756       C  0.81501052  0.31787205  0.16733981    -0.06000
C1757       C  0.81877792  0.34861615  0.15317411    -0.00100
C1758       C  0.78445245  0.33296785  0.13919759    -0.08500
C1759       C  0.78936341  0.36194950  0.12216497     0.61800
H1760       H  0.71870396  0.27604214  0.13046885     0.12500
H1761       H  0.84175066  0.33009747  0.17783177     0.12500
C1762       C  0.77525803  0.23967939  0.18339323     0.62100
F1763       F  0.75670546  0.33629110  0.10870542    -0.23100
F1764       F  0.83273277  0.37845406  0.11407832    -0.20400
F1765       F  0.78367044  0.39884640  0.12727688    -0.20100
F1766       F  0.77869028  0.20353163  0.17542592    -0.20200
F1767       F  0.73366642  0.22202923  0.19308662    -0.20500
F1768       F  0.81089403  0.26212469  0.19606914    -0.23200
C1769       C  0.55867050  0.27200778  0.13731941    -0.06000
C1770       C  0.54153953  0.24564873  0.15344396    -0.00100
C1771       C  0.52005432  0.25912188  0.16754897    -0.08600
C1772       C  0.51606226  0.29864109  0.16456366    -0.06000
C1773       C  0.53497716  0.32618420  0.14860690    -0.00100
C1774       C  0.55767531  0.31279775  0.13478248    -0.08500
C1775       C  0.58100964  0.33755954  0.11672904     0.61800
H1776       H  0.57452350  0.26109113  0.12654493     0.12500
H1777       H  0.49907891  0.30911172  0.17494492     0.12500
C1778       C  0.50307687  0.23338245  0.18593539     0.62100
F1779       F  0.62508010  0.34351070  0.11557792    -0.23100
F1780       F  0.58570644  0.38035586  0.11520129    -0.20400
F1781       F  0.55588273  0.31054881  0.10166809    -0.20100
F1782       F  0.53855668  0.23040048  0.19427675    -0.20200
F1783       F  0.46606610  0.18931666  0.18277067    -0.20500
F1784       F  0.48848752  0.25572253  0.19837798    -0.23200
C1785       C  0.52089438  0.89962341  0.40470201    -0.06000
C1786       C  0.52723211  0.87482693  0.39024586    -0.00100
C1787       C  0.54275352  0.84356856  0.39458424    -0.08600
C1788       C  0.55528210  0.84131852  0.41308032    -0.06000
C1789       C  0.55299840  0.86933890  0.42737442    -0.00100
C1790       C  0.53440025  0.89859060  0.42313675    -0.08500
C1791       C  0.53113998  0.93136046  0.43730379     0.61800
H1792       H  0.50961945  0.92372147  0.40101439     0.12500
H1793       H  0.56920438  0.81904395  0.41616510     0.12500
C1794       C  0.54866474  0.81373741  0.37997381     0.62100
F1795       F  0.50470544  0.94944563  0.43080976    -0.23100
F1796       F  0.57490822  0.96821495  0.44100911    -0.20400
F1797       F  0.51062271  0.90826159  0.45362092    -0.20100
F1798       F  0.59494214  0.83420757  0.37495566    -0.20200
F1799       F  0.52253170  0.80789595  0.36432940    -0.20500
F1800       F  0.53428250  0.77018330  0.38711257    -0.23200
C1801       C  0.30952801  0.82117638  0.32133735    -0.06000
C1802       C  0.34219246  0.81945213  0.33318158    -0.00100
C1803       C  0.32786347  0.77985589  0.34444594    -0.08600
C1804       C  0.28197062  0.74345882  0.34297569    -0.06000
C1805       C  0.24926773  0.74516842  0.33123435    -0.00100
C1806       C  0.26311874  0.78482246  0.32027762    -0.08500
C1807       C  0.22966444  0.78829444  0.30725048     0.61800
H1808       H  0.32062446  0.85144406  0.31273439     0.12500
H1809       H  0.27046415  0.71363480  0.35187002     0.12500
C1810       C  0.35950293  0.77602862  0.35855910     0.62100
F1811       F  0.25179665  0.82708004  0.29601781    -0.23100
F1812       F  0.19587256  0.79121525  0.31758036    -0.20400
F1813       F  0.20905407  0.74955031  0.29573837    -0.20100
F1814       F  0.37792999  0.81408674  0.37045940    -0.20200
F1815       F  0.39490797  0.77348663  0.34940913    -0.20500
F1816       F  0.33607519  0.73678509  0.36948664    -0.23200
C1817       C  0.56975255  0.80966299  0.32943298    -0.06000
C1818       C  0.53558194  0.81679499  0.32155701    -0.00100
C1819       C  0.49497438  0.77814100  0.31429928    -0.08600
C1820       C  0.48750463  0.73326070  0.31726779    -0.06000
C1821       C  0.52016951  0.72602501  0.32641795    -0.00100
C1822       C  0.56278141  0.76486381  0.33207090    -0.08500
C1823       C  0.59970745  0.75913682  0.34180912     0.61800
H1824       H  0.60082804  0.83943355  0.33475382     0.12500
H1825       H  0.45601054  0.70333728  0.31228056     0.12500
C1826       C  0.46043610  0.78406779  0.30285581     0.62100
F1827       F  0.63516734  0.80088908  0.34858418    -0.23100
F1828       F  0.61912154  0.74142804  0.32939443    -0.20400
F1829       F  0.58017570  0.72935693  0.35677231    -0.20100
F1830       F  0.48366488  0.82101768  0.29078658    -0.20200
F1831       F  0.43171409  0.79195283  0.31446317    -0.20500
F1832       F  0.43300154  0.74489862  0.29218692    -0.23200
C1833       C  0.55715692  0.02042997  0.25127543    -0.06000
C1834       C  0.51707331  0.01316969  0.26080555    -0.00100
C1835       C  0.49003152  0.03075044  0.25330170    -0.08600
C1836       C  0.50362419  0.05405623  0.23613345    -0.06000
C1837       C  0.54296248  0.06018071  0.22621918    -0.00100
C1838       C  0.57062375  0.04345175  0.23399595    -0.08500
C1839       C  0.61478650  0.05077912  0.22451851     0.61800
H1840       H  0.57761068  0.00725037  0.25743639     0.12500
H1841       H  0.48263697  0.06668338  0.23003809     0.12500
C1842       C  0.44727714  0.02554559  0.26337492     0.62100
F1843       F  0.63969619  0.03816888  0.23588694    -0.23100
F1844       F  0.64285487  0.09711511  0.22016463    -0.20400
F1845       F  0.60408573  0.02411549  0.20841243    -0.20100
F1846       F  0.45737572  0.03942686  0.28182594    -0.20200
F1847       F  0.41213420  0.97973954  0.26264513    -0.20500
F1848       F  0.43135858  0.05235440  0.25536504    -0.23200
C1849       C  0.09109155  0.77366849  0.17837761    -0.06000
C1850       C  0.12299105  0.78766012  0.16343529    -0.00100
C1851       C  0.12916991  0.75392437  0.15368694    -0.08600
C1852       C  0.09947214  0.70671112  0.15771444    -0.06000
C1853       C  0.06378728  0.69258146  0.17104085    -0.00100
C1854       C  0.06159906  0.72637619  0.18254462    -0.08500
C1855       C  0.02839918  0.71246015  0.19911654     0.61800
H1856       H  0.08702361  0.79985654  0.18587705     0.12500
H1857       H  0.10149675  0.68038329  0.14940295     0.12500
C1858       C  0.16589197  0.76791678  0.13861209     0.62100
F1859       F  0.03685513  0.75042391  0.21007189    -0.23100
F1860       F  0.03370921  0.68183209  0.21017911    -0.20400
F1861       F  0.98313494  0.69149218  0.19307909    -0.20100
F1862       F  0.20867884  0.79724313  0.14637731    -0.20200
F1863       F  0.15748870  0.79030962  0.12442064    -0.20500
F1864       F  0.16687258  0.73010530  0.13092798    -0.23200
C1865       C  0.42536018  0.02430057  0.14274068    -0.06000
C1866       C  0.44369325  0.01499009  0.15854599    -0.00100
C1867       C  0.41308569  0.98226267  0.17173375    -0.08600
C1868       C  0.36559321  0.96666581  0.17062762    -0.06000
C1869       C  0.34815330  0.98137179  0.15629220    -0.00100
C1870       C  0.37739033  0.00709725  0.14124195    -0.08500
C1871       C  0.35775952  0.01648239  0.12394334     0.61800
H1872       H  0.44910560  0.04880646  0.13255832     0.12500
H1873       H  0.34247217  0.94529719  0.18172274     0.12500
C1874       C  0.42948306  0.96598019  0.18801560     0.62100
F1875       F  0.39177831  0.04040488  0.11057354    -0.23100
F1876       F  0.33720218  0.04237854  0.12854574    -0.20400
F1877       F  0.32487139  0.97473503  0.11614826    -0.20100
F1878       F  0.42230238  0.98366498  0.20452364    -0.20200
F1879       F  0.47588724  0.97944108  0.18645092    -0.20500
F1880       F  0.40436422  0.91806060  0.18866384    -0.23200
C1881       C  0.40691272  0.87332975  0.90153238    -0.06000
C1882       C  0.37701088  0.86281319  0.88647298    -0.00100
C1883       C  0.32833378  0.83557001  0.88964672    -0.08600
C1884       C  0.31120292  0.82811955  0.90816115    -0.06000
C1885       C  0.34151139  0.84539304  0.92327471    -0.00100
C1886       C  0.38972248  0.86381885  0.91996459    -0.08500
C1887       C  0.42346005  0.87597244  0.93584515     0.61800
H1888       H  0.44400099  0.89237791  0.89899179     0.12500
H1889       H  0.27430084  0.81229535  0.91081373     0.12500
C1890       C  0.29460699  0.81463992  0.87361888     0.62100
F1891       F  0.46386209  0.87777696  0.92972438    -0.23100
F1892       F  0.40383029  0.84248756  0.94953228    -0.20400
F1893       F  0.43479913  0.91875737  0.94332454    -0.20100
F1894       F  0.31132210  0.79517592  0.86074594    -0.20200
F1895       F  0.28877760  0.84816919  0.86508837    -0.20500
F1896       F  0.25158824  0.77999283  0.87975854    -0.23200
C1897       C  0.09752743  0.77604097  0.97688499    -0.06000
C1898       C  0.11713218  0.81040897  0.99083510    -0.00100
C1899       C  0.08764769  0.81863819  0.00268081    -0.08600
C1900       C  0.03941558  0.78892694  0.00167010    -0.06000
C1901       C  0.02038826  0.75093739  0.98940288    -0.00100
C1902       C  0.04922077  0.74596993  0.97596513    -0.08500
C1903       C  0.02900315  0.70735981  0.96144229     0.61800
H1904       H  0.12039680  0.76974397  0.96798932     0.12500
H1905       H  0.01665644  0.79255924  0.01164070     0.12500
C1906       C  0.10772410  0.85735943  0.01696133     0.62100
F1907       F  0.06126619  0.71352337  0.94771222    -0.23100
F1908       F  0.99173176  0.70657254  0.95289789    -0.20400
F1909       F  0.01423212  0.66511580  0.96986998    -0.20100
F1910       F  0.13536874  0.89856315  0.00770514    -0.20200
F1911       F  0.13367587  0.84941384  0.02967250    -0.20500
F1912       F  0.07376063  0.86119079  0.02677869    -0.23200
C1913       C  0.29895812  0.04744469  0.97860729    -0.06000
C1914       C  0.31814700  0.03168440  0.99192260    -0.00100
C1915       C  0.35319643  0.06419607  0.00391949    -0.08600
C1916       C  0.37126620  0.11176701  0.00084903    -0.06000
C1917       C  0.35581737  0.12765381  0.98613940    -0.00100
C1918       C  0.31819673  0.09517712  0.97514978    -0.08500
C1919       C  0.30190535  0.11087202  0.95862591     0.61800
H1920       H  0.27238830  0.02213832  0.96948402     0.12500
H1921       H  0.40057707  0.13675483  0.00902285     0.12500
C1922       C  0.37484844  0.05069670  0.01928160     0.62100
F1923       F  0.26287429  0.07456853  0.95050755    -0.23100
F1924       F  0.33671019  0.12942583  0.94521784    -0.20400
F1925       F  0.29126439  0.14415212  0.96441583    -0.20100
F1926       F  0.35099353  0.00366030  0.02284759    -0.20200
F1927       F  0.37545467  0.07348659  0.03569158    -0.20500
F1928       F  0.41990387  0.06380821  0.01420861    -0.23200
C1929       C  0.24708345  0.86916006  0.07192349    -0.06000
C1930       C  0.23726017  0.88926220  0.05689176    -0.00100
C1931       C  0.22197606  0.92125141  0.06088633    -0.08600
C1932       C  0.20654022  0.92263155  0.07920196    -0.06000
C1933       C  0.21248835  0.89896404  0.09399226    -0.00100
C1934       C  0.23788507  0.87578095  0.09055351    -0.08500
C1935       C  0.25648684  0.85674653  0.10510097     0.61800
H1936       H  0.26259822  0.84789662  0.06907146     0.12500
H1937       H  0.19090695  0.94362013  0.08230964     0.12500
C1938       C  0.22510317  0.95629234  0.04676995     0.62100
F1939       F  0.23591280  0.80925199  0.10281724    -0.23100
F1940       F  0.24971976  0.86594140  0.12327844    -0.20400
F1941       F  0.30378857  0.87627281  0.10234597    -0.20100
F1942       F  0.20045500  0.93484924  0.03095957    -0.20200
F1943       F  0.27099743  0.98522114  0.04187301    -0.20500
F1944       F  0.20800725  0.98351716  0.05397052    -0.23200
C1945       C  0.70911090  0.99133963  0.17861128    -0.06000
C1946       C  0.68353826  0.94812470  0.16970552    -0.00100
C1947       C  0.63663919  0.93193310  0.16523723    -0.08600
C1948       C  0.62040436  0.96350470  0.16621243    -0.06000
C1949       C  0.64960964  0.00982287  0.17172234    -0.00100
C1950       C  0.69270437  0.02241807  0.18001108    -0.08500
C1951       C  0.72365012  0.06842602  0.18975380     0.61800
H1952       H  0.74430780  0.00281473  0.18292409     0.12500
H1953       H  0.58608076  0.95289371  0.16107521     0.12500
C1954       C  0.60272812  0.88269445  0.15925870     0.62100
F1955       F  0.73578986  0.06019256  0.20709169    -0.23100
F1956       F  0.70236179  0.09433103  0.19265887    -0.20400
F1957       F  0.76356891  0.09396893  0.17921710    -0.20100
F1958       F  0.62279348  0.85539115  0.15782554    -0.20200
F1959       F  0.58384135  0.88272760  0.14220100    -0.20500
F1960       F  0.56734560  0.86303858  0.17240503    -0.23200
C1961       C  0.94771413  0.91696697  0.17252147    -0.06000
C1962       C  0.91166827  0.87875744  0.16317410    -0.00100
C1963       C  0.92182724  0.84904255  0.15249904    -0.08600
C1964       C  0.96799782  0.85850375  0.15187851    -0.06000
C1965       C  0.00432734  0.89692221  0.16132417    -0.00100
C1966       C  0.99383666  0.92745400  0.17160166    -0.08500
C1967       C  0.03001474  0.97106837  0.18173223     0.61800
H1968       H  0.93919781  0.93869444  0.18107824     0.12500
H1969       H  0.97584454  0.83550075  0.14388563     0.12500
C1970       C  0.88463586  0.80827733  0.14155688     0.62100
F1971       F  0.01117625  0.99569203  0.19003458    -0.23100
F1972       F  0.06345240  0.00055900  0.16918687    -0.20400
F1973       F  0.05016043  0.95922842  0.19572061    -0.20100
F1974       F  0.86084505  0.82297875  0.13057167    -0.20200
F1975       F  0.85400898  0.77467501  0.15376479    -0.20500
F1976       F  0.90325374  0.78824685  0.12988482    -0.23200
C1977       C  0.63671225  0.64817549  0.14126063    -0.06000
C1978       C  0.60050136  0.62730228  0.15441188    -0.00100
C1979       C  0.58823656  0.65531815  0.16522560    -0.08600
C1980       C  0.61765399  0.70393541  0.16480834    -0.06000
C1981       C  0.65830894  0.72426552  0.15381601    -0.00100
C1982       C  0.66573871  0.69652128  0.14063137    -0.08500
C1983       C  0.70573373  0.71747124  0.12668710     0.61800
H1984       H  0.64534034  0.62619328  0.13287826     0.12500
H1985       H  0.61143602  0.72581184  0.17432518     0.12500
C1986       C  0.54584359  0.63342471  0.17787306     0.62100
F1987       F  0.69954851  0.68646536  0.11239546    -0.23100
F1988       F  0.74683479  0.72958457  0.13553668    -0.20400
F1989       F  0.70884518  0.75647245  0.11872881    -0.20100
F1990       F  0.55158192  0.60869314  0.19186862    -0.20200
F1991       F  0.50744694  0.60361475  0.16744628    -0.20500
F1992       F  0.53766257  0.66643189  0.18611540    -0.23200
C1993       C  0.50644339  0.68217297  0.92934091    -0.06000
C1994       C  0.53445244  0.73092877  0.92972053    -0.00100
C1995       C  0.54275796  0.75556845  0.91290141    -0.08600
C1996       C  0.53049240  0.73029555  0.89593513    -0.06000
C1997       C  0.50884046  0.68145824  0.89545996    -0.00100
C1998       C  0.49265865  0.65689841  0.91238676    -0.08500
C1999       C  0.46355471  0.60448717  0.91255669     0.61800
H2000       H  0.49843277  0.66375986  0.94246778     0.12500
H2001       H  0.54124805  0.74879730  0.88282561     0.12500
C2002       C  0.56664448  0.80802554  0.91282221     0.62100
F2003       F  0.44956220  0.58771174  0.93051015    -0.23100
F2004       F  0.48869180  0.58539047  0.90509250    -0.20400
F2005       F  0.42423890  0.59038119  0.90201313    -0.20100
F2006       F  0.61101696  0.82697117  0.91974413    -0.20200
F2007       F  0.54166360  0.82221585  0.92389887    -0.20500
F2008       F  0.56959181  0.82494190  0.89497975    -0.23200
C2009       C  0.75636734  0.99769885  0.00314585    -0.06000
C2010       C  0.72267973  0.96595797  0.99082357    -0.00100
C2011       C  0.71018602  0.98276785  0.97522428    -0.08600
C2012       C  0.72743230  0.03078503  0.97376600    -0.06000
C2013       C  0.75747537  0.06216032  0.98718148    -0.00100
C2014       C  0.77426577  0.04584490  0.00155919    -0.08500
C2015       C  0.80819718  0.07878157  0.01597598     0.61800
H2016       H  0.76504759  0.98417953  0.01512358     0.12500
H2017       H  0.71554786  0.04396068  0.96270740     0.12500
C2018       C  0.67694267  0.94954857  0.96071273     0.62100
F2019       F  0.81898444  0.05561939  0.02907145    -0.23100
F2020       F  0.78938577  0.10206145  0.02536887    -0.20400
F2021       F  0.84885034  0.11058189  0.00712532    -0.20100
F2022       F  0.63472989  0.91946719  0.96890832    -0.20200
F2023       F  0.69526026  0.92412933  0.95282557    -0.20500
F2024       F  0.66935421  0.97271181  0.94655817    -0.23200
C2025       C  0.45244543  0.83005491  0.99575614    -0.06000
C2026       C  0.49536414  0.86583126  0.98952674    -0.00100
C2027       C  0.49953132  0.90816701  0.98370759    -0.08600
C2028       C  0.45978243  0.91271946  0.98415262    -0.06000
C2029       C  0.41592824  0.87587740  0.98946799    -0.00100
C2030       C  0.41260846  0.83407846  0.99597412    -0.08500
C2031       C  0.36738981  0.79232158  0.00231437     0.61800
H2032       H  0.45021592  0.79814462  0.00026594     0.12500
H2033       H  0.46228221  0.94438089  0.97921011     0.12500
C2034       C  0.54476961  0.94703046  0.97579229     0.62100
F2035       F  0.37483530  0.76209182  0.01273317    -0.23100
F2036       F  0.34215582  0.80607940  0.01343149    -0.20400
F2037       F  0.34217531  0.76837984  0.98677966    -0.20100
F2038       F  0.56011451  0.92987080  0.96139269    -0.20200
F2039       F  0.57788841  0.96563018  0.98960612    -0.20500
F2040       F  0.53968542  0.98252162  0.96867058    -0.23200
C2041       C  0.76253564  0.70801427  0.01149356    -0.06000
C2042       C  0.79858024  0.72643245  0.99818828    -0.00100
C2043       C  0.80828735  0.76698725  0.98849622    -0.08600
C2044       C  0.77745606  0.78402952  0.99047534    -0.06000
C2045       C  0.73754333  0.76140197  0.00177238    -0.00100
C2046       C  0.73191564  0.72518849  0.01364441    -0.08500
C2047       C  0.69335707  0.70396013  0.02821928     0.61800
H2048       H  0.75578362  0.67715143  0.01893991     0.12500
H2049       H  0.78223551  0.81275759  0.98199888     0.12500
C2050       C  0.85000993  0.79074809  0.97557283     0.62100
F2051       F  0.70045471  0.67677077  0.04066195    -0.23100
F2052       F  0.65117846  0.67645391  0.01967962    -0.20400
F2053       F  0.69177945  0.73868592  0.03839948    -0.20100
F2054       F  0.84602179  0.76142047  0.96095893    -0.20200
F2055       F  0.88963137  0.80241957  0.98552197    -0.20500
F2056       F  0.85459412  0.83091893  0.96813950    -0.23200
C2057       C  0.65385141  0.85826306  0.07604635    -0.06000
C2058       C  0.68226271  0.86229987  0.06064027    -0.00100
C2059       C  0.72913350  0.87451638  0.06373813    -0.08600
C2060       C  0.74559833  0.88321059  0.08220015    -0.06000
C2061       C  0.71718717  0.88004220  0.09738527    -0.00100
C2062       C  0.67061042  0.86745660  0.09435366    -0.08500
C2063       C  0.63934035  0.86593834  0.11024367     0.61800
H2064       H  0.61812465  0.84838729  0.07361449     0.12500
H2065       H  0.78122673  0.89321422  0.08499315     0.12500
C2066       C  0.76242301  0.87999931  0.04789358     0.62100
F2067       F  0.59673818  0.85742701  0.10395444    -0.23100
F2068       F  0.66016625  0.90810510  0.11959401    -0.20400
F2069       F  0.63163360  0.83099466  0.12242984    -0.20100
F2070       F  0.76444805  0.91146529  0.03501128    -0.20200
F2071       F  0.74786485  0.83765918  0.03923293    -0.20500
F2072       F  0.80696748  0.89604647  0.05423476    -0.23200
C2073       C  0.30130148  0.36895261  0.17488101    -0.06000
C2074       C  0.28624264  0.38664869  0.16065494    -0.00100
C2075       C  0.31930230  0.42615281  0.15068761    -0.08600
C2076       C  0.36688835  0.44438918  0.15419265    -0.06000
C2077       C  0.38200476  0.42311241  0.16683438    -0.00100
C2078       C  0.34884012  0.38650332  0.17813455    -0.08500
C2079       C  0.36357503  0.36496444  0.19310993     0.61800
H2080       H  0.27563013  0.33846666  0.18229422     0.12500
H2081       H  0.39262286  0.47261185  0.14577384     0.12500
C2082       C  0.30415031  0.44664680  0.13548760     0.62100
F2083       F  0.32701912  0.33700400  0.20491893    -0.23100
F2084       F  0.39816691  0.39951553  0.20383661    -0.20400
F2085       F  0.37993188  0.33813788  0.18493083    -0.20100
F2086       F  0.27169957  0.45695280  0.14271149    -0.20200
F2087       F  0.28464687  0.41507815  0.12095921    -0.20500
F2088       F  0.34098304  0.48697752  0.12837875    -0.23200
C2089       C  0.15728487  0.08121802  0.15103758    -0.06000
C2090       C  0.20054095  0.08921018  0.15726413    -0.00100
C2091       C  0.23512501  0.13539685  0.16187237    -0.08600
C2092       C  0.22313960  0.17033096  0.16202208    -0.06000
C2093       C  0.17817726  0.16079312  0.15788943    -0.00100
C2094       C  0.14521022  0.11593994  0.15147677    -0.08500
C2095       C  0.09734536  0.10438228  0.14520776     0.61800
H2096       H  0.13180460  0.04651934  0.14661910     0.12500
H2097       H  0.24858785  0.20544319  0.16603008     0.12500
C2098       C  0.28395640  0.14808820  0.16718228     0.62100
F2099       F  0.07391470  0.06117229  0.13668238    -0.23100
F2100       F  0.10077427  0.13674412  0.13244840    -0.20400
F2101       F  0.07159243  0.10426557  0.16056357    -0.20100
F2102       F  0.30323760  0.13382826  0.15320567    -0.20200
F2103       F  0.28292372  0.12711319  0.18385400    -0.20500
F2104       F  0.31254425  0.19548180  0.16947571    -0.23200
C2105       C  0.89977500  0.10557082  0.17005324    -0.06000
C2106       C  0.90551762  0.06845387  0.16431962    -0.00100
C2107       C  0.94627032  0.07766000  0.15443377    -0.08600
C2108       C  0.98224764  0.12396164  0.15257296    -0.06000
C2109       C  0.97850057  0.16137788  0.15987492    -0.00100
C2110       C  0.93528634  0.15208436  0.16786295    -0.08500
C2111       C  0.92621517  0.19035808  0.17435698     0.61800
H2112       H  0.86715036  0.09760565  0.17660856     0.12500
H2113       H  0.01450656  0.13118499  0.14590296     0.12500
C2114       C  0.95140255  0.03887389  0.14554475     0.62100
F2115       F  0.88099366  0.17300369  0.18055667    -0.23100
F2116       F  0.93362171  0.21976632  0.15962077    -0.20400
F2117       F  0.95515100  0.21504219  0.18897362    -0.20100
F2118       F  0.91337720  0.01112843  0.13455220    -0.20200
F2119       F  0.95495950  0.01231484  0.15932630    -0.20500
F2120       F  0.99040016  0.05587141  0.13420131    -0.23200
C2121       C  0.08794426  0.48388488  0.16911040    -0.06000
C2122       C  0.05294908  0.47703447  0.15660585    -0.00100
C2123       C  0.04235054  0.44507400  0.14167468    -0.08600
C2124       C  0.06023490  0.41487206  0.14176441    -0.06000
C2125       C  0.09117946  0.41808184  0.15555132    -0.00100
C2126       C  0.10769372  0.45503337  0.16871282    -0.08500
C2127       C  0.14377979  0.46186686  0.18296000     0.61800
H2128       H  0.09634082  0.50889999  0.18034473     0.12500
H2129       H  0.04851558  0.38737363  0.13136398     0.12500
C2130       C  0.01006911  0.44012925  0.12605223     0.62100
F2131       F  0.15411962  0.49872813  0.19493021    -0.23100
F2132       F  0.18410950  0.47076548  0.17372727    -0.20400
F2133       F  0.12789786  0.42236663  0.19361633    -0.20100
F2134       F  0.00046442  0.47589032  0.12616140    -0.20200
F2135       F  0.96896551  0.39845585  0.12774666    -0.20500
F2136       F  0.03066357  0.44083167  0.10901644    -0.23200
C2137       C  0.19564703  0.57116602  0.92625061    -0.06000
C2138       C  0.21947290  0.54646173  0.92746301    -0.00100
C2139       C  0.23863897  0.53836608  0.91108514    -0.08600
C2140       C  0.22800469  0.54996954  0.89375059    -0.06000
C2141       C  0.19830217  0.56827655  0.89245869    -0.00100
C2142       C  0.18451646  0.58217281  0.90888934    -0.08500
C2143       C  0.15586836  0.60574531  0.90803680     0.61800
H2144       H  0.18247118  0.57836057  0.93904044     0.12500
H2145       H  0.23902248  0.54054847  0.88090569     0.12500
C2146       C  0.26661233  0.51406159  0.91175546     0.62100
F2147       F  0.14442990  0.61455448  0.92568972    -0.23100
F2148       F  0.11510053  0.57803786  0.89853654    -0.20400
F2149       F  0.18103776  0.64756219  0.89887344    -0.20100
F2150       F  0.28134971  0.50898986  0.89412644    -0.20200
F2151       F  0.23998238  0.47041833  0.91937047    -0.20500
F2152       F  0.30540467  0.53969983  0.92260901    -0.23200
C2153       C  0.29901397  0.37566982  0.97108192    -0.06000
C2154       C  0.26862710  0.36134624  0.98651884    -0.00100
C2155       C  0.26119523  0.32229901  0.99680618    -0.08600
C2156       C  0.28984417  0.30322932  0.99315467    -0.06000
C2157       C  0.32508720  0.32229480  0.97950040    -0.00100
C2158       C  0.32701328  0.35606424  0.96718066    -0.08500
C2159       C  0.35904982  0.37162458  0.95019621     0.61800
H2160       H  0.30355255  0.40497048  0.96305964     0.12500
H2161       H  0.28794573  0.27652524  0.00216657     0.12500
C2162       C  0.22504413  0.30304955  0.01229823     0.62100
F2163       F  0.35118243  0.40002178  0.93877640    -0.23100
F2164       F  0.35145823  0.33314721  0.93981557    -0.20400
F2165       F  0.40485182  0.39588489  0.95561726    -0.20100
F2166       F  0.18275514  0.29376779  0.00537815    -0.20200
F2167       F  0.23770352  0.33501591  0.02674167    -0.20500
F2168       F  0.21982715  0.26231336  0.01938066    -0.23200
C2169       C  0.16621704  0.60148086  0.98209047    -0.06000
C2170       C  0.19519764  0.59162751  0.99275627    -0.00100
C2171       C  0.23176715  0.62790861  0.00301586    -0.08600
C2172       C  0.24170462  0.67367585  0.00037897    -0.06000
C2173       C  0.21420104  0.68366928  0.98895108    -0.00100
C2174       C  0.17450617  0.64700969  0.98038697    -0.08500
C2175       C  0.14180295  0.65628421  0.96920566     0.61800
H2176       H  0.13815407  0.57351291  0.97439453     0.12500
H2177       H  0.27049032  0.70190021  0.00768829     0.12500
C2178       C  0.25978502  0.61885770  0.01706567     0.62100
F2179       F  0.16629541  0.68835703  0.95539299    -0.23100
F2180       F  0.12055817  0.67348076  0.98091854    -0.20400
F2181       F  0.10740295  0.61639623  0.96076505    -0.20100
F2182       F  0.29772612  0.62055683  0.00830285    -0.20200
F2183       F  0.23305814  0.57591462  0.02525783    -0.20500
F2184       F  0.27530670  0.65184741  0.03124347    -0.23200
C2185       C  0.45173845  0.66898562  0.97913157    -0.06000
C2186       C  0.48439039  0.66611082  0.99036738    -0.00100
C2187       C  0.47125929  0.62467757  0.00005855    -0.08600
C2188       C  0.42517029  0.58799841  0.99849920    -0.06000
C2189       C  0.39224662  0.59113937  0.98738406    -0.00100
C2190       C  0.40613342  0.63242714  0.97723802    -0.08500
C2191       C  0.37412324  0.63855125  0.96412273     0.61800
H2192       H  0.46266221  0.70045201  0.97134367     0.12500
H2193       H  0.41453566  0.55641006  0.00614156     0.12500
C2194       C  0.50507483  0.61935678  0.01223687     0.62100
F2195       F  0.39743564  0.67900547  0.95389164    -0.23100
F2196       F  0.33965360  0.64058849  0.97429128    -0.20400
F2197       F  0.35458876  0.60208402  0.95148726    -0.20100
F2198       F  0.52560995  0.65608812  0.02474356    -0.20200
F2199       F  0.53888920  0.61836590  0.00116683    -0.20500
F2200       F  0.48332457  0.57874654  0.02242479    -0.23200
C2201       C  0.98087693  0.26834420  0.98650858    -0.06000
C2202       C  0.95185370  0.28167675  0.99563096    -0.00100
C2203       C  0.97106990  0.31873579  0.00867224    -0.08600
C2204       C  0.01925915  0.34692813  0.00940762    -0.06000
C2205       C  0.04853632  0.33780313  0.99817990    -0.00100
C2206       C  0.02956057  0.29584008  0.98776143    -0.08500
C2207       C  0.06037015  0.28186884  0.97715984     0.61800
H2208       H  0.96543316  0.23861504  0.97721561     0.12500
H2209       H  0.03408432  0.37804982  0.01802912     0.12500
C2210       C  0.94216814  0.33174215  0.02114642     0.62100
F2211       F  0.03479345  0.23974722  0.96799806    -0.23100
F2212       F  0.08930802  0.27766028  0.98958957    -0.20400
F2213       F  0.08685766  0.31502540  0.96398605    -0.20100
F2214       F  0.89529722  0.29964518  0.02040336    -0.20200
F2215       F  0.94921836  0.37451593  0.01591588    -0.20500
F2216       F  0.95594923  0.33458152  0.03948786    -0.23200
C2217       C  0.17227543  0.35299501  0.05841288    -0.06000
C2218       C  0.20224796  0.40114011  0.05751462    -0.00100
C2219       C  0.21621017  0.42764901  0.07433423    -0.08600
C2220       C  0.20368435  0.40415467  0.09147681    -0.06000
C2221       C  0.17750174  0.35563119  0.09223197    -0.00100
C2222       C  0.15923414  0.32965777  0.07554667    -0.08500
C2223       C  0.12587329  0.27765564  0.07570852     0.61800
H2224       H  0.16050917  0.33330044  0.04549049     0.12500
H2225       H  0.21604897  0.42355905  0.10443615     0.12500
C2226       C  0.24404230  0.48031108  0.07440739     0.62100
F2227       F  0.10423355  0.26169462  0.05863397    -0.23100
F2228       F  0.09174384  0.26677202  0.08916797    -0.20400
F2229       F  0.14957161  0.25474526  0.07950238    -0.20100
F2230       F  0.22571579  0.49767176  0.06179805    -0.20200
F2231       F  0.28967893  0.49521861  0.06965911    -0.20500
F2232       F  0.24329757  0.49847903  0.09186821    -0.23200
C2233       C  0.56282542  0.19699803  0.55681244    -0.06000
C2234       C  0.53718597  0.21994213  0.55583398    -0.00100
C2235       C  0.52899002  0.23858795  0.57234413    -0.08600
C2236       C  0.54204202  0.22879047  0.58952805    -0.06000
C2237       C  0.56104743  0.19969081  0.59062515    -0.00100
C2238       C  0.57456359  0.18604950  0.57406098    -0.08500
C2239       C  0.59902843  0.15820890  0.57468940     0.61800
H2240       H  0.57051518  0.18461535  0.54394084     0.12500
H2241       H  0.53383954  0.24048300  0.60245077     0.12500
C2242       C  0.50351459  0.26547659  0.57197554     0.62100
F2243       F  0.64098867  0.18407126  0.58363729    -0.23100
F2244       F  0.60763732  0.14694738  0.55693853    -0.20400
F2245       F  0.57223605  0.11738624  0.58433548    -0.20100
F2246       F  0.46022713  0.23845074  0.56414956    -0.20200
F2247       F  0.52875250  0.30514363  0.56148045    -0.20500
F2248       F  0.49732984  0.27866044  0.58974339    -0.23200
C2249       C  0.36601005  0.30245187  0.51140710    -0.06000
C2250       C  0.34898512  0.26761071  0.49758593    -0.00100
C2251       C  0.31005640  0.25962394  0.48707723    -0.08600
C2252       C  0.29423027  0.29145872  0.48860661    -0.06000
C2253       C  0.31609276  0.33046843  0.50039428    -0.00100
C2254       C  0.34989500  0.33402812  0.51309423    -0.08500
C2255       C  0.37094914  0.37255753  0.52761388     0.61800
H2256       H  0.39578054  0.30825540  0.51941447     0.12500
H2257       H  0.26713271  0.28782752  0.47937943     0.12500
C2258       C  0.28659572  0.22022220  0.47307065     0.62100
F2259       F  0.39305932  0.36251907  0.54143725    -0.23100
F2260       F  0.33660125  0.37821162  0.53609616    -0.20400
F2261       F  0.40298561  0.41359982  0.51921600    -0.20100
F2262       F  0.30273423  0.18943480  0.47378584    -0.20200
F2263       F  0.29386585  0.23807594  0.45521211    -0.20500
F2264       F  0.23947914  0.19578115  0.47680828    -0.23200
C2265       C  0.33326069  0.01796381  0.47498029    -0.06000
C2266       C  0.32686410  0.04749503  0.48721821    -0.00100
C2267       C  0.28867931  0.02820510  0.49987235    -0.08600
C2268       C  0.26074636  0.97940631  0.50096635    -0.06000
C2269       C  0.27102164  0.95000393  0.49028195    -0.00100
C2270       C  0.30613785  0.96954661  0.47630638    -0.08500
C2271       C  0.31964417  0.94108085  0.46377138     0.61800
H2272       H  0.36232443  0.03285757  0.46523602     0.12500
H2273       H  0.23427135  0.96398115  0.51175698     0.12500
C2274       C  0.28041225  0.05876607  0.51341472     0.62100
F2275       F  0.32058391  0.95356082  0.44533764    -0.23100
F2276       F  0.28914321  0.89391394  0.46509822    -0.20400
F2277       F  0.36343052  0.95015297  0.46853398    -0.20100
F2278       F  0.27292915  0.08964230  0.50354318    -0.20200
F2279       F  0.31865836  0.08318894  0.52471360    -0.20500
F2280       F  0.24215990  0.03311834  0.52483667    -0.23200
C2281       C  0.17096082  0.00944713  0.25787421    -0.06000
C2282       C  0.19788802  0.05801616  0.25968713    -0.00100
C2283       C  0.20405257  0.08599743  0.24403546    -0.08600
C2284       C  0.18853629  0.06407379  0.22650991    -0.06000
C2285       C  0.16846394  0.01571931  0.22430214    -0.00100
C2286       C  0.15638855  0.98762933  0.24032693    -0.08500
C2287       C  0.13170197  0.93516744  0.23873971     0.61800
H2288       H  0.16464923  0.98858825  0.27020957     0.12500
H2289       H  0.19671077  0.08491530  0.21402866     0.12500
C2290       C  0.23034209  0.13850792  0.24546766     0.62100
F2291       F  0.12291742  0.91440790  0.25610673    -0.23100
F2292       F  0.15856068  0.92178008  0.22850274    -0.20400
F2293       F  0.08977617  0.91918791  0.22988775    -0.20100
F2294       F  0.27522726  0.15403121  0.25116644    -0.20200
F2295       F  0.20852347  0.15275371  0.25828631    -0.20500
F2296       F  0.23233987  0.15892253  0.22849962    -0.23200
C2297       C  0.41015155  0.31581411  0.33912460    -0.06000
C2298       C  0.38113474  0.28414703  0.32553657    -0.00100
C2299       C  0.37547926  0.30091407  0.30828111    -0.08600
C2300       C  0.39472375  0.34913075  0.30607663    -0.06000
C2301       C  0.42010601  0.38047180  0.32043061    -0.00100
C2302       C  0.43027250  0.36398260  0.33676517    -0.08500
C2303       C  0.46001508  0.39716321  0.35208712     0.61800
H2304       H  0.41395289  0.30233287  0.35225316     0.12500
H2305       H  0.38765748  0.36247508  0.29361244     0.12500
C2306       C  0.34668207  0.26774378  0.29281814     0.62100
F2307       F  0.46487716  0.37402942  0.36699837    -0.23100
F2308       F  0.44025790  0.42242498  0.35876013    -0.20400
F2309       F  0.50368754  0.42724354  0.34494574    -0.20100
F2310       F  0.30083416  0.24236935  0.29846712    -0.20200
F2311       F  0.36284898  0.23773975  0.28873745    -0.20500
F2312       F  0.34903382  0.29098690  0.27658836    -0.23200
C2313       C  0.39777674  0.05203969  0.34439550    -0.06000
C2314       C  0.40467746  0.08542392  0.33105048    -0.00100
C2315       C  0.44492427  0.10411233  0.31951704    -0.08600
C2316       C  0.47520272  0.08631901  0.32085450    -0.06000
C2317       C  0.46478061  0.04868487  0.33243044    -0.00100
C2318       C  0.42751662  0.03370541  0.34540882    -0.08500
C2319       C  0.41598336  0.99589056  0.35955117     0.61800
H2320       H  0.36730495  0.03811237  0.35338444     0.12500
H2321       H  0.50357456  0.09712479  0.31092679     0.12500
C2322       C  0.45298253  0.13879439  0.30440216     0.62100
F2323       F  0.41215891  0.01138906  0.37717987    -0.23100
F2324       F  0.44971728  0.98351460  0.36022813    -0.20400
F2325       F  0.37417321  0.95705470  0.35505103    -0.20100
F2326       F  0.45553101  0.17796791  0.31236561    -0.20200
F2327       F  0.41675302  0.11915565  0.29188414    -0.20500
F2328       F  0.49377335  0.15219877  0.29454357    -0.23200
C2329       C  0.36208178  0.22605948  0.39773849    -0.06000
C2330       C  0.34075776  0.17960402  0.39213902    -0.00100
C2331       C  0.34143201  0.14645206  0.40394207    -0.08600
C2332       C  0.36404160  0.16142022  0.42127196    -0.06000
C2333       C  0.38640652  0.20838858  0.42685106    -0.00100
C2334       C  0.38531343  0.24148136  0.41480365    -0.08500
C2335       C  0.40799597  0.29289157  0.41961650     0.61800
H2336       H  0.36094906  0.25055062  0.38829599     0.12500
H2337       H  0.36490140  0.13648113  0.43051500     0.12500
C2338       C  0.31766132  0.09565294  0.39836862     0.62100
F2339       F  0.45567724  0.31275511  0.41914436    -0.23100
F2340       F  0.39370045  0.29885224  0.43717950    -0.20400
F2341       F  0.39654323  0.31657802  0.40703486    -0.20100
F2342       F  0.33887566  0.09028654  0.38253519    -0.20200
F2343       F  0.27150068  0.07966664  0.39464769    -0.20500
F2344       F  0.31973911  0.06861749  0.41238903    -0.23200
C2345       C  0.67342147  0.49941296  0.56037928    -0.06000
C2346       C  0.72222714  0.52522960  0.55883558    -0.00100
C2347       C  0.74876247  0.53517192  0.57520653    -0.08600
C2348       C  0.72583842  0.52653048  0.59267824    -0.06000
C2349       C  0.67729532  0.50624810  0.59422564    -0.00100
C2350       C  0.65034587  0.48916567  0.57788662    -0.08500
C2351       C  0.59780047  0.46324987  0.57886282     0.61800
H2352       H  0.65343434  0.49070045  0.54765333     0.12500
H2353       H  0.74612976  0.53851220  0.60530718     0.12500
C2354       C  0.80095166  0.55649714  0.57423589     0.62100
F2355       F  0.57829301  0.45033757  0.56128978    -0.23100
F2356       F  0.58255247  0.49090651  0.58717730    -0.20400
F2357       F  0.58232674  0.42343039  0.58926964    -0.20100
F2358       F  0.82107858  0.59886999  0.56536511    -0.20200
F2359       F  0.81148159  0.52699443  0.56435982    -0.20500
F2360       F  0.82009070  0.56339916  0.59185045    -0.23200
C2361       C  0.98695003  0.75425159  0.48725309    -0.06000
C2362       C  0.95505889  0.71669869  0.49816063    -0.00100
C2363       C  0.97167708  0.70120047  0.51287741    -0.08600
C2364       C  0.01958750  0.71850830  0.51416917    -0.06000
C2365       C  0.05135996  0.75291839  0.50207112    -0.00100
C2366       C  0.03520386  0.77335502  0.48921517    -0.08500
C2367       C  0.06864288  0.81259935  0.47664008     0.61800
H2368       H  0.97374898  0.76570210  0.47604542     0.12500
H2369       H  0.03219071  0.70368034  0.52428447     0.12500
C2370       C  0.94021135  0.66444842  0.52677435     0.62100
F2371       F  0.04587966  0.82760655  0.46519439    -0.23100
F2372       F  0.09306673  0.79805207  0.46540119    -0.20400
F2373       F  0.09937453  0.84983453  0.48749412    -0.20100
F2374       F  0.94171456  0.62431627  0.52351374    -0.20200
F2375       F  0.89473489  0.65419111  0.52583731    -0.20500
F2376       F  0.95550577  0.68017333  0.54472805    -0.23200
C2377       C  0.61099749  0.47672767  0.50332234    -0.06000
C2378       C  0.65206040  0.48504839  0.49413277    -0.00100
C2379       C  0.65275353  0.44756329  0.48482291    -0.08600
C2380       C  0.61495003  0.40250737  0.48697584    -0.06000
C2381       C  0.57498370  0.39402549  0.49681188    -0.00100
C2382       C  0.57185284  0.43176869  0.50445519    -0.08500
C2383       C  0.52786149  0.42442978  0.51411164     0.61800
H2384       H  0.61031658  0.50543452  0.51025100     0.12500
H2385       H  0.61623717  0.37338476  0.48072155     0.12500
C2386       C  0.69378187  0.45397739  0.47329764     0.62100
F2387       F  0.53429536  0.46440411  0.52293094    -0.23100
F2388       F  0.51357630  0.39018570  0.52745945    -0.20400
F2389       F  0.49331456  0.41131657  0.50102845    -0.20100
F2390       F  0.72580266  0.45372097  0.48516114    -0.20200
F2391       F  0.71341557  0.49527980  0.46360821    -0.20500
F2392       F  0.68082502  0.41856476  0.46026483    -0.23200
C2393       C  0.77621066  0.77711927  0.50340770    -0.06000
C2394       C  0.75897441  0.74026741  0.49047128    -0.00100
C2395       C  0.73034498  0.73903267  0.47585702    -0.08600
C2396       C  0.71254704  0.76937078  0.47677656    -0.06000
C2397       C  0.72489542  0.80233640  0.49124799    -0.00100
C2398       C  0.76036124  0.80914118  0.50366502    -0.08500
C2399       C  0.78027524  0.84962409  0.51730303     0.61800
H2400       H  0.80005347  0.77908791  0.51395674     0.12500
H2401       H  0.68598405  0.76498313  0.46709718     0.12500
C2402       C  0.71930767  0.70608376  0.45937543     0.62100
F2403       F  0.74638908  0.84627041  0.52957194    -0.23100
F2404       F  0.79773068  0.89044224  0.50740558    -0.20400
F2405       F  0.81586695  0.85152261  0.52763999    -0.20100
F2406       F  0.69465348  0.66057570  0.46522963    -0.20200
F2407       F  0.76034015  0.71415423  0.45100644    -0.20500
F2408       F  0.69341752  0.71241883  0.44606469    -0.23200
C2409       C  0.85740330  0.89124448  0.26174714    -0.06000
C2410       C  0.88199024  0.86706327  0.26191681    -0.00100
C2411       C  0.90309498  0.86371768  0.24514416    -0.08600
C2412       C  0.89192760  0.87726276  0.22829452    -0.06000
C2413       C  0.86196188  0.89551231  0.22795144    -0.00100
C2414       C  0.84789762  0.90651117  0.24502299    -0.08500
C2415       C  0.82009022  0.93101279  0.24546691     0.61800
H2416       H  0.84267256  0.89519289  0.27476179     0.12500
H2417       H  0.90375876  0.87049887  0.21505666     0.12500
C2418       C  0.93506662  0.84385842  0.24491702     0.62100
F2419       F  0.81391159  0.94254483  0.26354500    -0.23100
F2420       F  0.77697555  0.90266558  0.23773898    -0.20400
F2421       F  0.84320301  0.97158229  0.23533421    -0.20100
F2422       F  0.91160240  0.79868235  0.25124420    -0.20200
F2423       F  0.97240145  0.87042890  0.25640681    -0.20500
F2424       F  0.95206789  0.84392758  0.22712084    -0.23200
C2425       C  0.92250159  0.64337954  0.33294753    -0.06000
C2426       C  0.93587470  0.68442132  0.32310835    -0.00100
C2427       C  0.97433449  0.70144407  0.31066080    -0.08600
C2428       C  0.00145442  0.68035637  0.31024299    -0.06000
C2429       C  0.99167971  0.64300931  0.32181207    -0.00100
C2430       C  0.94994675  0.62208418  0.33250631    -0.08500
C2431       C  0.93648314  0.58001294  0.34452311     0.61800
H2432       H  0.89317683  0.63096671  0.34247887     0.12500
H2433       H  0.03278408  0.69551765  0.30171644     0.12500
C2434       C  0.99114042  0.74444774  0.29885842     0.62100
F2435       F  0.89496127  0.56566058  0.35396115    -0.23100
F2436       F  0.97042486  0.59039002  0.35762840    -0.20400
F2437       F  0.93143436  0.54362087  0.33334822    -0.20100
F2438       F  0.03372303  0.77859463  0.30537066    -0.20200
F2439       F  0.96094389  0.76135778  0.29910950    -0.20500
F2440       F  0.99636475  0.73415394  0.28048486    -0.23200
C2441       C  0.69830287  0.62337805  0.31798915    -0.06000
C2442       C  0.71354337  0.65714472  0.33214515    -0.00100
C2443       C  0.68171315  0.65542932  0.34585343    -0.08600
C2444       C  0.63424902  0.62367463  0.34339293    -0.06000
C2445       C  0.61843721  0.59464157  0.32758581    -0.00100
C2446       C  0.65096495  0.59162210  0.31557759    -0.08500
C2447       C  0.63710786  0.55822043  0.29917103     0.61800
H2448       H  0.72314481  0.62410866  0.30783572     0.12500
H2449       H  0.60897765  0.62562438  0.35247595     0.12500
C2450       C  0.69737096  0.68917898  0.36220351     0.62100
F2451       F  0.66230263  0.53567428  0.29945507    -0.23100
F2452       F  0.64678931  0.58256705  0.28265827    -0.20400
F2453       F  0.59057563  0.52492741  0.29970925    -0.20100
F2454       F  0.70872262  0.73271690  0.35603138    -0.20200
F2455       F  0.73570623  0.69149293  0.37041616    -0.20500
F2456       F  0.66289802  0.67553632  0.37573343    -0.23200
C2457       C  0.84394192  0.67585272  0.39392009    -0.06000
C2458       C  0.86742513  0.72440877  0.39302248    -0.00100
C2459       C  0.87716193  0.75068438  0.40984520    -0.08600
C2460       C  0.86603645  0.72726466  0.42704374    -0.06000
C2461       C  0.84623590  0.67893576  0.42793001    -0.00100
C2462       C  0.83323836  0.65244922  0.41107474    -0.08500
C2463       C  0.80883305  0.59978543  0.41093594     0.61800
H2464       H  0.83609440  0.65624286  0.38095112     0.12500
H2465       H  0.87489126  0.74693137  0.44001076     0.12500
C2466       C  0.89888921  0.80306702  0.40978342     0.62100
F2467       F  0.79034532  0.58140764  0.39357887    -0.23100
F2468       F  0.77279287  0.58180271  0.42385124    -0.20400
F2469       F  0.84002153  0.58565588  0.41519992    -0.20100
F2470       F  0.87471650  0.81543501  0.39789896    -0.20200
F2471       F  0.94459975  0.82357170  0.40393868    -0.20500
F2472       F  0.89811758  0.82040262  0.42742162    -0.23200
C2473       C  0.09247168  0.90126738  0.31549438    -0.06000
C2474       C  0.05676056  0.90928396  0.32123651    -0.00100
C2475       C  0.06780168  0.95301801  0.32872365    -0.08600
C2476       C  0.11453858  0.98813496  0.32936129    -0.06000
C2477       C  0.15057300  0.98136697  0.32254674    -0.00100
C2478       C  0.13939155  0.93657394  0.31581774    -0.08500
C2479       C  0.17595805  0.92575602  0.30852462     0.61800
H2480       H  0.08304654  0.86702984  0.31036380     0.12500
H2481       H  0.12313860  0.02207325  0.33465409     0.12500
C2482       C  0.03047506  0.96249050  0.33623618     0.62100
F2483       F  0.15684017  0.87991034  0.30288785    -0.23100
F2484       F  0.20736057  0.93377438  0.32248826    -0.20400
F2485       F  0.19886483  0.95316372  0.29326323    -0.20100
F2486       F  0.00279151  0.92907362  0.34914383    -0.20200
F2487       F  0.00341036  0.96183833  0.32167270    -0.20500
F2488       F  0.04919871  0.00531232  0.34503756    -0.23200
C2489       C  0.00583612  0.17766480  0.22490525    -0.06000
C2490       C  0.05432454  0.20443118  0.22292116    -0.00100
C2491       C  0.08232317  0.21436466  0.23884071    -0.08600
C2492       C  0.06064851  0.20364954  0.25659909    -0.06000
C2493       C  0.01212196  0.18239346  0.25869408    -0.00100
C2494       C  0.98407116  0.16575053  0.24260484    -0.08500
C2495       C  0.93164204  0.13751156  0.24404741     0.61800
H2496       H  0.98500053  0.16880083  0.21241765     0.12500
H2497       H  0.08167868  0.21463355  0.26907292     0.12500
C2498       C  0.13467532  0.23857269  0.23709074     0.62100
F2499       F  0.91113541  0.12612359  0.22662263    -0.23100
F2500       F  0.91476411  0.16210261  0.25377064    -0.20400
F2501       F  0.91890087  0.09673299  0.25329641    -0.20100
F2502       F  0.15168399  0.28211521  0.22949611    -0.20200
F2503       F  0.14690008  0.21265879  0.22560287    -0.20500
F2504       F  0.15537232  0.24368328  0.25425219    -0.23200
C2505       C  0.76531974  0.10242799  0.30765401    -0.06000
C2506       C  0.78079450  0.13186202  0.32332791    -0.00100
C2507       C  0.74846299  0.13732215  0.33446958    -0.08600
C2508       C  0.70076190  0.10703351  0.33144059    -0.06000
C2509       C  0.68532014  0.07308394  0.31726313    -0.00100
C2510       C  0.71777499  0.07352390  0.30414334    -0.08500
C2511       C  0.70223577  0.04409260  0.28645833     0.61800
H2512       H  0.79070887  0.09958271  0.29899092     0.12500
H2513       H  0.67536984  0.10762900  0.34087817     0.12500
C2514       C  0.76453589  0.17505632  0.34933034     0.62100
F2515       F  0.73945938  0.05265650  0.27497021    -0.23100
F2516       F  0.67337900  0.05447454  0.27660082    -0.20400
F2517       F  0.67867748  0.99748053  0.29071489    -0.20100
F2518       F  0.78912115  0.21779580  0.34080377    -0.20200
F2519       F  0.79286935  0.17093225  0.36204316    -0.20500
F2520       F  0.72757410  0.17340803  0.35906950    -0.23200
C2521       C  0.95909004  0.36527077  0.32129410    -0.06000
C2522       C  0.97756078  0.34856658  0.33452238    -0.00100
C2523       C  0.01064105  0.37983518  0.34743458    -0.08600
C2524       C  0.02916993  0.42761071  0.34490198    -0.06000
C2525       C  0.01488154  0.44453051  0.33016928    -0.00100
C2526       C  0.97781482  0.41318535  0.31873182    -0.08500
C2527       C  0.96125620  0.43056869  0.30283604     0.61800
H2528       H  0.93353210  0.34082373  0.31161603     0.12500
H2529       H  0.05770231  0.45191564  0.35358426     0.12500
C2530       C  0.02890422  0.36463879  0.36347697     0.62100
F2531       F  0.92205174  0.39502843  0.29450654    -0.23100
F2532       F  0.99565784  0.45066506  0.28932851    -0.20400
F2533       F  0.95069328  0.46321513  0.30959423    -0.20100
F2534       F  0.07476208  0.37790851  0.36000433    -0.20200
F2535       F  0.00392766  0.31725173  0.36621108    -0.20500
F2536       F  0.02618542  0.38586722  0.37983515    -0.23200
C2537       C  0.84961537  0.97482195  0.33214928    -0.06000
C2538       C  0.87950824  0.00481839  0.31809230    -0.00100
C2539       C  0.90032413  0.98816883  0.30514005    -0.08600
C2540       C  0.89313346  0.94355368  0.30759484    -0.06000
C2541       C  0.86397977  0.91386283  0.32173780    -0.00100
C2542       C  0.84076405  0.92906228  0.33398274    -0.08500
C2543       C  0.80789444  0.89771639  0.34904563     0.61800
H2544       H  0.83339601  0.98761564  0.34187603     0.12500
H2545       H  0.91009655  0.93110216  0.29808784     0.12500
C2546       C  0.92846822  0.01605315  0.28832471     0.62100
F2547       F  0.79264282  0.92091611  0.36068303    -0.23100
F2548       F  0.83001122  0.88091660  0.35990702    -0.20400
F2549       F  0.76953263  0.86094671  0.34083630    -0.20100
F2550       F  0.97096866  0.05206399  0.29402355    -0.20200
F2551       F  0.90447106  0.03345958  0.27915277    -0.20500
F2552       F  0.93655491  0.98921318  0.27558296    -0.23200
C2553       C  0.11967302  0.22696125  0.31464897    -0.06000
C2554       C  0.07932495  0.19691655  0.32475036    -0.00100
C2555       C  0.07718379  0.15919612  0.33452321    -0.08600
C2556       C  0.11478252  0.15146090  0.33293531    -0.06000
C2557       C  0.15429050  0.18053857  0.32227037    -0.00100
C2558       C  0.15740706  0.21943346  0.31322775    -0.08500
C2559       C  0.19949361  0.25156065  0.30145873     0.61800
H2560       H  0.12050292  0.25521694  0.30707000     0.12500
H2561       H  0.11373147  0.12260678  0.34012688     0.12500
C2562       C  0.03605129  0.12786521  0.34692504     0.62100
F2563       F  0.20706780  0.22606342  0.28789717    -0.23100
F2564       F  0.23809616  0.27423746  0.31266512    -0.20400
F2565       F  0.19372941  0.28483709  0.29256712    -0.20100
F2566       F  0.99850689  0.09836043  0.33609651    -0.20200
F2567       F  0.02441675  0.15443688  0.35828956    -0.20500
F2568       F  0.04590234  0.10092219  0.35836662    -0.23200
C2569       C  0.83024685  0.32018144  0.57250988    -0.06000
C2570       C  0.84233591  0.35129449  0.55781332    -0.00100
C2571       C  0.85865837  0.39872743  0.56206177    -0.08600
C2572       C  0.87170480  0.41487832  0.58049895    -0.06000
C2573       C  0.86642095  0.38448533  0.59483012    -0.00100
C2574       C  0.84104912  0.33585224  0.59108378    -0.08500
C2575       C  0.82575005  0.30025395  0.60642294     0.61800
H2576       H  0.81621406  0.28375589  0.56922302     0.12500
H2577       H  0.88800652  0.45171497  0.58348311     0.12500
C2578       C  0.86181211  0.43315413  0.54783607     0.62100
F2579       F  0.79294234  0.25645333  0.60021329    -0.23100
F2580       F  0.80601262  0.31245662  0.62087031    -0.20400
F2581       F  0.86321503  0.29783358  0.61274628    -0.20100
F2582       F  0.83555523  0.45222175  0.55404043    -0.20200
F2583       F  0.84513353  0.41265326  0.53062393    -0.20500
F2584       F  0.90729100  0.46839156  0.54596726    -0.23200
C2585       C  0.75983847  0.10169058  0.51109868    -0.06000
C2586       C  0.79676073  0.11776550  0.49826421    -0.00100
C2587       C  0.80863419  0.08595083  0.49035452    -0.08600
C2588       C  0.77975442  0.03807318  0.49403436    -0.06000
C2589       C  0.73967188  0.02168247  0.50529958    -0.00100
C2590       C  0.73180794  0.05436359  0.51515677    -0.08500
C2591       C  0.69290670  0.04099989  0.52933819     0.61800
H2592       H  0.75098868  0.12620689  0.51720992     0.12500
H2593       H  0.78591392  0.01297585  0.48675353     0.12500
C2594       C  0.85023058  0.10254035  0.47739255     0.62100
F2595       F  0.71007676  0.06896465  0.54506876    -0.23100
F2596       F  0.67338090  0.99551340  0.53507615    -0.20400
F2597       F  0.65888371  0.04750872  0.52166135    -0.20100
F2598       F  0.88956011  0.13502548  0.48666131    -0.20200
F2599       F  0.84431359  0.12259654  0.46169075    -0.20500
F2600       F  0.85688414  0.06652183  0.47163190    -0.23200
C2601       C  0.64173936  0.18032691  0.49818650    -0.06000
C2602       C  0.67779302  0.22533202  0.49407368    -0.00100
C2603       C  0.66692878  0.25820721  0.48721613    -0.08600
C2604       C  0.62005144  0.24531512  0.48557978    -0.06000
C2605       C  0.58367189  0.20126439  0.49095204    -0.00100
C2606       C  0.59473503  0.16753308  0.49692532    -0.08500
C2607       C  0.55785987  0.11877824  0.50259763     0.61800
H2608       H  0.65091292  0.15535420  0.50290694     0.12500
H2609       H  0.61144589  0.27069873  0.48085707     0.12500
C2610       C  0.70440821  0.30662071  0.48151690     0.62100
F2611       F  0.57685861  0.09186905  0.50736587    -0.23100
F2612       F  0.52806616  0.09691221  0.48786201    -0.20400
F2613       F  0.53315558  0.12059943  0.51795584    -0.20100
F2614       F  0.73451424  0.30389676  0.46873660    -0.20200
F2615       F  0.72877433  0.33136668  0.49711210    -0.20500
F2616       F  0.68597359  0.33095031  0.47329343    -0.23200
C2617       C  0.89771888  0.49967577  0.50150728    -0.06000
C2618       C  0.85844961  0.49413292  0.49229852    -0.00100
C2619       C  0.83660956  0.45754944  0.47903836    -0.08600
C2620       C  0.84613694  0.42113441  0.47946926    -0.06000
C2621       C  0.88209966  0.42403937  0.49033102    -0.00100
C2622       C  0.91180933  0.46644446  0.49975929    -0.08500
C2623       C  0.95823360  0.47719283  0.50760449     0.61800
H2624       H  0.91753324  0.53052850  0.50997923     0.12500
H2625       H  0.82578606  0.39037615  0.47098103     0.12500
C2626       C  0.80700067  0.45703652  0.46309121     0.62100
F2627       F  0.98241569  0.52166335  0.51498349    -0.23100
F2628       F  0.98497944  0.47384518  0.49337666    -0.20400
F2629       F  0.95240102  0.44665219  0.52160647    -0.20100
F2630       F  0.80101177  0.49505786  0.46312729    -0.20200
F2631       F  0.76418655  0.41706967  0.46382752    -0.20500
F2632       F  0.82834618  0.45707401  0.44633997    -0.23200
C2633       C  0.09928838  0.37213209  0.47584029    -0.06000
C2634       C  0.11829396  0.35223299  0.48720618    -0.00100
C2635       C  0.08843888  0.30938713  0.49595251    -0.08600
C2636       C  0.03998622  0.29104468  0.49507212    -0.06000
C2637       C  0.02149766  0.31505105  0.48593575    -0.00100
C2638       C  0.05134047  0.35431405  0.47499520    -0.08500
C2639       C  0.03488570  0.38089079  0.46335507     0.61800
H2640       H  0.12236848  0.40490681  0.46909549     0.12500
H2641       H  0.01674945  0.26062031  0.50310632     0.12500
C2642       C  0.10811973  0.28512656  0.50709119     0.62100
F2643       F  0.05379522  0.38715702  0.44553918    -0.23100
F2644       F  0.04954335  0.42378248  0.47146673    -0.20400
F2645       F  0.98730378  0.35851636  0.46164183    -0.20100
F2646       F  0.13257476  0.31225693  0.52221825    -0.20200
F2647       F  0.13765150  0.27754582  0.49576056    -0.20500
F2648       F  0.07359202  0.24272129  0.51371668    -0.23200
C2649       C  0.83649980  0.16797702  0.42128926    -0.06000
C2650       C  0.86678326  0.21250789  0.42823543    -0.00100
C2651       C  0.90622828  0.24342644  0.41761644    -0.08600
C2652       C  0.91284972  0.22908634  0.39980886    -0.06000
C2653       C  0.88242165  0.18440285  0.39281455    -0.00100
C2654       C  0.84398554  0.15271873  0.40391904    -0.08500
C2655       C  0.81051574  0.10313488  0.39767125     0.61800
H2656       H  0.80692985  0.14481212  0.42985664     0.12500
H2657       H  0.94241154  0.25245875  0.39130262     0.12500
C2658       C  0.94116135  0.29093273  0.42507841     0.62100
F2659       F  0.77296003  0.08089082  0.40975257    -0.23100
F2660       F  0.83307572  0.07797640  0.39716553    -0.20400
F2661       F  0.79344981  0.10264634  0.38015414    -0.20100
F2662       F  0.96396536  0.28565029  0.43994479    -0.20200
F2663       F  0.91896715  0.31450091  0.43096426    -0.20500
F2664       F  0.97391442  0.31755538  0.41167833    -0.23200
loop_ 
_geom_bond_atom_site_label_1 
_geom_bond_atom_site_label_2 
_geom_bond_distance 
_geom_bond_site_symmetry_2 
_ccdc_geom_bond_type 
O1           Ni7   1.935       .  S
O1           C22   1.276       .  A
O2          Ni25   1.923       .  S
O2           C11   1.271       .  A
O3           Ni7   1.906       .  S
O3          Ni25   1.911       .  S
O3          Ni19   1.915       .  S
O3           H26   0.966       .  S
C4           O21   1.277       .  A
C4           O13   1.274       .  A
C4         C2650   1.473       .  S
O5          Ni24   1.910       .  S
O5           C11   1.265       .  A
O6          Ni24   1.900       .  S
O6            C8   1.267       .  A
Ni7          O10   1.938       .  S
Ni7          O12   1.910       .  S
C8           O18   1.278       .  A
C8         C2586   1.482       .  S
O9          Ni25   1.926       .  S
O9           C15   1.280       .  A
O10          C15   1.278       .  A
C11        C2602   1.482       .  S
O12          C14   1.266       .  A
O13         Ni24   1.908       .  S
C14          O20   1.272       .  A
C14        C2621   1.485       .  S
C15        C2570   1.480       .  S
H16          O17   0.966       .  S
O17         Ni25   1.918       .  S
O17         Ni19   1.901       .  S
O17         Ni24   1.898       .  S
O18         Ni19   1.953       .  S
Ni19         O23   1.912       .  S
Ni19         O21   1.928       .  S
O20         Ni25   1.931       .  S
C22          O23   1.270       .  A
C22        C2637   1.481   1_655  S
O27         Ni33   1.945       .  S
O27          C48   1.277   1_455  A
O28         Ni51   1.914       .  S
O28          C37   1.269       .  A
O29         Ni33   1.899   1_655  S
O29         Ni51   1.902       .  S
O29         Ni45   1.907       .  S
O29          H52   0.967       .  S
C30          O47   1.279       .  A
C30          O39   1.272       .  A
C30        C2653   1.478       .  S
O31         Ni50   1.909       .  S
O31          C37   1.265       .  A
O32         Ni50   1.907       .  S
O32          C34   1.268       .  A
Ni33         O36   1.936       .  S
Ni33         O38   1.916       .  S
C34          O44   1.273       .  A
C34        C2506   1.474       .  S
O35         Ni51   1.926       .  S
O35          C41   1.283       .  A
O36          C41   1.282   1_455  A
C37        C2538   1.485       .  S
O38          C40   1.270       .  A
O39         Ni50   1.906       .  S
C40          O46   1.265       .  A
C40        C2554   1.478       .  S
C41        C2493   1.486   1_655  S
H42          O43   0.965       .  S
O43         Ni51   1.918       .  S
O43         Ni45   1.893       .  S
O43         Ni50   1.892       .  S
O44         Ni45   1.937       .  S
Ni45         O49   1.902       .  S
Ni45         O47   1.930       .  S
O46         Ni51   1.914   1_455  S
C48          O49   1.268       .  A
C48        C2522   1.474       .  S
O53         Ni59   1.941       .  S
O53          C74   1.275       .  A
O54         Ni77   1.917       .  S
O54          C63   1.271   1_655  A
O55         Ni59   1.901       .  S
O55         Ni77   1.899       .  S
O55         Ni71   1.905       .  S
O55          H78   0.966       .  S
C56          O73   1.276       .  A
C56          O65   1.274       .  A
C56        C2458   1.484       .  S
O57         Ni76   1.916   1_455  S
O57          C63   1.267       .  A
O58         Ni76   1.903       .  S
O58          C60   1.268       .  A
Ni59         O62   1.927       .  S
Ni59         O64   1.918       .  S
C60          O70   1.277       .  A
C60        C2426   1.476       .  S
O61         Ni77   1.944       .  S
O61          C67   1.289       .  A
O62          C67   1.281       .  A
C63        C2474   1.475       .  S
O64          C66   1.269       .  A
O65         Ni76   1.920       .  S
C66          O72   1.264       .  A
C66        C2541   1.478       .  S
C67        C2410   1.493       .  S
H68          O69   0.967       .  S
O69         Ni77   1.927       .  S
O69         Ni71   1.895       .  S
O69         Ni76   1.894       .  S
O70         Ni71   1.944       .  S
Ni71         O75   1.901       .  S
Ni71         O73   1.926       .  S
O72         Ni77   1.901       .  S
C74          O75   1.268       .  A
C74        C2442   1.472       .  S
O79         Ni85   1.950       .  S
O79         C100   1.279       .  A
O80        Ni103   1.942       .  S
O80          C89   1.278       .  A
O81         Ni85   1.900       .  S
O81        Ni103   1.915       .  S
O81         Ni97   1.911       .  S
O81         H104   0.966       .  S
C82          O99   1.280       .  A
C82          O91   1.273       .  A
C82        C2461   1.485       .  S
O83        Ni102   1.905       .  S
O83          C89   1.263       .  A
O84        Ni102   1.904       .  S
O84          C86   1.267       .  A
Ni85         O88   1.925       .  S
Ni85         O90   1.918       .  S
C86          O96   1.274       .  A
C86        C2362   1.477       .  S
O87        Ni103   1.944       .  S
O87          C93   1.288       .  A
O88          C93   1.279       .  A
C89        C2618   1.479       .  S
O90          C92   1.272       .  A
O91        Ni102   1.910       .  S
C92          O98   1.270       .  A
C92        C2378   1.491       .  S
C93        C2346   1.489       .  S
H94          O95   0.965       .  S
O95        Ni103   1.925       .  S
O95         Ni97   1.896       .  S
O95        Ni102   1.897       .  S
O96         Ni97   1.940       .  S
Ni97        O101   1.908       .  S
Ni97         O99   1.934       .  S
O98        Ni103   1.923       .  S
C100        O101   1.267       .  A
C100       C2394   1.483       .  S
O105       Ni111   1.948       .  S
O105        C126   1.277       .  A
O106       Ni129   1.923       .  S
O106        C115   1.270       .  A
O107       Ni111   1.903       .  S
O107       Ni129   1.909       .  S
O107       Ni123   1.905       .  S
O107        H130   0.966       .  S
C108        O125   1.276       .  A
C108        O117   1.274       .  A
C108       C2330   1.471       .  S
O109       Ni128   1.916       .  S
O109        C115   1.264       .  A
O110       Ni128   1.899       .  S
O110        C112   1.267       .  A
Ni111       O114   1.932       .  S
Ni111       O116   1.918       .  S
C112        O122   1.278       .  A
C112       C2298   1.478       .  S
O113       Ni129   1.921       .  S
O113        C119   1.280       .  A
O114        C119   1.281       .  A
C115       C2557   1.474       .  S
O116        C118   1.269       .  A
O117       Ni128   1.911       .  S
C118        O124   1.268       .  A
C118       C2477   1.492   1_545  S
C119       C2282   1.483       .  S
H120        O121   0.967       .  S
O121       Ni129   1.918       .  S
O121       Ni123   1.905       .  S
O121       Ni128   1.900       .  S
O122       Ni123   1.948       .  S
Ni123       O127   1.918       .  S
Ni123       O125   1.927       .  S
O124       Ni129   1.913       .  S
C126        O127   1.272       .  A
C126       C2314   1.489       .  S
O131       Ni137   1.937       .  S
O131        C152   1.276       .  A
O132       Ni155   1.924       .  S
O132        C141   1.272       .  A
O133       Ni137   1.895       .  S
O133       Ni155   1.904       .  S
O133       Ni149   1.907       .  S
O133        H156   0.967       .  S
C134        O151   1.281       .  A
C134        O143   1.273       .  A
C134       C2333   1.489       .  S
O135       Ni154   1.913       .  S
O135        C141   1.264       .  A
O136       Ni154   1.901       .  S
O136        C138   1.267       .  A
Ni137       O140   1.927       .  S
Ni137       O142   1.917       .  S
C138        O148   1.276       .  A
C138       C2250   1.474       .  S
O139       Ni155   1.927       .  S
O139        C145   1.284       .  A
O140        C145   1.280       .  A
C141       C2381   1.477       .  S
O142        C144   1.268       .  A
O143       Ni154   1.909       .  S
C144        O150   1.267       .  A
C144       C2605   1.492       .  S
C145       C2234   1.482       .  S
H146        O147   0.966       .  S
O147       Ni155   1.918       .  S
O147       Ni149   1.900       .  S
O147       Ni154   1.891       .  S
O148       Ni149   1.942       .  S
Ni149       O153   1.918       .  S
Ni149       O151   1.937       .  S
O150       Ni155   1.912       .  S
C152        O153   1.272       .  A
C152       C2266   1.485       .  S
O157       Ni163   1.934       .  S
O157        C178   1.275       .  A
O158       Ni181   1.906       .  S
O158        C167   1.267       .  A
O159       Ni163   1.896       .  S
O159       Ni181   1.897       .  S
O159       Ni175   1.902   1_556  S
O159        H182   0.966       .  S
C160        O177   1.276       .  A
C160        O169   1.274       .  A
C160       C2218   1.479       .  S
O161       Ni180   1.916   1_556  S
O161        C167   1.269       .  A
O162       Ni180   1.907       .  S
O162        C164   1.268   1_554  A
Ni163       O166   1.921       .  S
Ni163       O168   1.914       .  S
C164        O174   1.275       .  A
C164       C2154   1.478       .  S
O165       Ni181   1.930       .  S
O165        C171   1.284       .  A
O166        C171   1.280       .  A
C167       C2189   1.488       .  S
O168        C170   1.269       .  A
O169       Ni180   1.915       .  S
C170        O176   1.267       .  A
C170       C2170   1.483       .  S
C171       C2138   1.480       .  S
H172        O173   0.965       .  S
O173       Ni181   1.916   1_554  S
O173       Ni175   1.895       .  S
O173       Ni180   1.895       .  S
O174       Ni175   1.943   1_556  S
Ni175       O179   1.905   1_554  S
Ni175       O177   1.918       .  S
O176       Ni181   1.918       .  S
C178        O179   1.267       .  A
C178       C2205   1.477       .  S
O183       Ni189   1.945       .  S
O183        C204   1.276       .  A
O184       Ni207   1.930       .  S
O184        C193   1.273       .  A
O185       Ni189   1.898       .  S
O185       Ni207   1.909       .  S
O185       Ni201   1.901       .  S
O185        H208   0.967       .  S
C186        O203   1.275       .  A
C186        O195   1.273       .  A
C186       C2221   1.475       .  S
O187       Ni206   1.915       .  S
O187        C193   1.266       .  A
O188       Ni206   1.904       .  S
O188        C190   1.268       .  A
Ni189       O192   1.928       .  S
Ni189       O194   1.917       .  S
C190        O200   1.279       .  A
C190       C2074   1.482       .  S
O191       Ni207   1.929       .  S
O191        C197   1.284       .  A
O192        C197   1.281       .  A
C193       C2093   1.485       .  S
O194        C196   1.268       .  A
O195       Ni206   1.912       .  S
C196        O202   1.270       .  A
C196       C2109   1.496   1_455  S
C197       C2490   1.481       .  S
H198        O199   0.966       .  S
O199       Ni207   1.919       .  S
O199       Ni201   1.906       .  S
O199       Ni206   1.897       .  S
O200       Ni201   1.951       .  S
Ni201       O205   1.919       .  S
Ni201       O203   1.922       .  S
O202       Ni207   1.923       .  S
C204        O205   1.272       .  A
C204       C2125   1.488       .  S
O209       Ni215   1.944       .  S
O209        C230   1.275       .  A
O210       Ni233   1.919       .  S
O210        C219   1.273       .  A
O211       Ni215   1.903       .  S
O211       Ni233   1.902       .  S
O211       Ni227   1.898   1_556  S
O211        H234   0.966       .  S
C212        O229   1.269       .  A
C212        O221   1.275       .  A
C212       C2058   1.486       .  S
O213       Ni232   1.922   1_556  S
O213        C219   1.267       .  A
O214       Ni232   1.895       .  S
O214        C216   1.268   1_554  A
Ni215       O218   1.926       .  S
Ni215       O220   1.912       .  S
C216        O226   1.280       .  A
C216       C2010   1.476       .  S
O217       Ni233   1.939       .  S
O217        C223   1.287       .  A
O218        C223   1.281       .  A
C219       C2026   1.480       .  S
O220        C222   1.267       .  A
O221       Ni232   1.914       .  S
C222        O228   1.266       .  A
C222       C2186   1.482       .  S
C223       C1994   1.487       .  S
H224        O225   0.966       .  S
O225       Ni233   1.922   1_554  S
O225       Ni227   1.905       .  S
O225       Ni232   1.899       .  S
O226       Ni227   1.951   1_556  S
Ni227       O231   1.911   1_554  S
Ni227       O229   1.913       .  S
O228       Ni233   1.903       .  S
C230        O231   1.271       .  A
C230       C2045   1.484   1_556  S
O235       Ni241   1.941       .  S
O235        C256   1.277       .  A
O236       Ni259   1.929       .  S
O236        C245   1.273   1_565  A
O237       Ni241   1.897       .  S
O237       Ni259   1.903       .  S
O237       Ni253   1.903       .  S
O237        H260   0.967       .  S
C238        O255   1.276       .  A
C238        O247   1.273       .  A
C238       C2061   1.472       .  S
O239       Ni258   1.910   1_545  S
O239        C245   1.265       .  A
O240       Ni258   1.903       .  S
O240        C242   1.269       .  A
Ni241       O244   1.925       .  S
Ni241       O246   1.918       .  S
C242        O252   1.274       .  A
C242       C1946   1.474       .  S
O243       Ni259   1.941       .  S
O243        C249   1.288       .  A
O244        C249   1.280       .  A
C245       C2106   1.481       .  S
O246        C248   1.268       .  A
O247       Ni258   1.910       .  S
C248        O254   1.264       .  A
C248       C1962   1.483       .  S
C249       C2413   1.485       .  S
H250        O251   0.967       .  S
O251       Ni259   1.924       .  S
O251       Ni253   1.895       .  S
O251       Ni258   1.892       .  S
O252       Ni253   1.937       .  S
Ni253       O257   1.909       .  S
Ni253       O255   1.927       .  S
O254       Ni259   1.894       .  S
C256        O257   1.270       .  A
C256       C1981   1.481       .  S
O261       Ni267   1.943       .  S
O261        C282   1.277       .  A
O262       Ni285   1.926       .  S
O262        C271   1.272       .  A
O263       Ni267   1.900       .  S
O263       Ni285   1.906       .  S
O263       Ni279   1.901       .  S
O263        H286   0.967       .  S
C264        O281   1.274       .  A
C264        O273   1.276       .  A
C264       C1930   1.490       .  S
O265       Ni284   1.911   1_556  S
O265        C271   1.264       .  A
O266       Ni284   1.899       .  S
O266        C268   1.267   1_554  A
Ni267       O270   1.925       .  S
Ni267       O272   1.925       .  S
C268        O278   1.278       .  A
C268       C1898   1.478       .  S
O269       Ni285   1.933       .  S
O269        C275   1.285       .  A
O270        C275   1.278       .  A
C271       C2173   1.474       .  S
O272        C274   1.272       .  A
O273       Ni284   1.913       .  S
C274        O280   1.265       .  A
C274       C2029   1.496       .  S
C275       C1885   1.481       .  S
H276        O277   0.965       .  S
O277       Ni285   1.923   1_554  S
O277       Ni279   1.899   1_554  S
O277       Ni284   1.892       .  S
O278       Ni279   1.948       .  S
Ni279       O283   1.906       .  S
Ni279       O281   1.929   1_556  S
O280       Ni285   1.916       .  S
C282        O283   1.268       .  A
C282       C1914   1.478   1_565  S
O287       Ni293   1.944       .  S
O287        C308   1.276   1_545  A
O288       Ni311   1.899       .  S
O288        C297   1.266       .  A
O289       Ni293   1.905   1_565  S
O289       Ni311   1.894       .  S
O289       Ni305   1.885       .  S
O289        H312   0.967       .  S
C290        O307   1.262       .  A
C290        O299   1.275       .  A
C290       C1933   1.481       .  S
O291       Ni310   1.928       .  S
O291        C297   1.272       .  A
O292       Ni310   1.903       .  S
O292        C294   1.269       .  A
Ni293       O296   1.924       .  S
Ni293       O298   1.922       .  S
C294        O304   1.279       .  A
C294       C1850   1.483       .  S
O295       Ni311   1.930       .  S
O295        C301   1.284       .  A
O296        C301   1.279   1_545  A
C297       C1965   1.496       .  S
O298        C300   1.268       .  A
O299       Ni310   1.931       .  S
C300        O306   1.267       .  A
C300       C2090   1.498       .  S
C301       C2285   1.478   1_565  S
H302        O303   0.966       .  S
O303       Ni311   1.924       .  S
O303       Ni305   1.909       .  S
O303       Ni310   1.913       .  S
O304       Ni305   1.952       .  S
Ni305       O309   1.892       .  S
Ni305       O307   1.897       .  S
O306       Ni311   1.916   1_545  S
C308        O309   1.263       .  A
C308       C1869   1.469       .  S
O313       Ni319   1.909       .  S
O313        C334   1.264       .  A
O314       Ni337   1.914   1_545  S
O314        C323   1.271       .  A
O315       Ni319   1.900       .  S
O315       Ni337   1.905       .  S
O315       Ni331   1.927       .  S
O315        H338   0.966       .  S
C316        O333   1.286       .  A
C316        O325   1.281       .  A
C316       C1786   1.482       .  S
O317       Ni336   1.939       .  S
O317        C323   1.276   1_565  A
O318       Ni336   1.916       .  S
O318        C320   1.269       .  A
Ni319       O322   1.918       .  S
Ni319       O324   1.890       .  S
C320        O330   1.266       .  A
C320       C1818   1.487       .  S
O321       Ni337   1.924   1_545  S
O321        C327   1.277   1_545  A
O322        C327   1.275       .  A
C323       C2509   1.480       .  S
O324        C326   1.265   1_565  A
O325       Ni336   1.938       .  S
C326        O332   1.280       .  A
C326       C2317   1.478       .  S
C327       C1834   1.478   1_565  S
H328        O329   0.966       .  S
O329       Ni337   1.905       .  S
O329       Ni331   1.897       .  S
O329       Ni336   1.903       .  S
O330       Ni331   1.921       .  S
Ni331       O335   1.917       .  S
Ni331       O333   1.930       .  S
O332       Ni337   1.954   1_545  S
C334        O335   1.269       .  A
C334       C1802   1.489       .  S
O339       Ni345   1.913       .  S
O339        C360   1.265       .  A
O340       Ni363   1.899       .  S
O340        C349   1.268       .  A
O341       Ni345   1.906       .  S
O341       Ni363   1.899       .  S
O341       Ni357   1.927       .  S
O341        H364   0.966       .  S
C342        O359   1.288       .  A
C342        O351   1.279       .  A
C342       C1738   1.489       .  S
O343       Ni362   1.938       .  S
O343        C349   1.276       .  A
O344       Ni362   1.911       .  S
O344        C346   1.267       .  A
Ni345       O348   1.918       .  S
Ni345       O350   1.899       .  S
C346        O356   1.265       .  A
C346       C1754   1.474       .  S
O347       Ni363   1.918       .  S
O347        C353   1.271       .  A
O348        C353   1.274       .  A
C349       C1949   1.479       .  S
O350        C352   1.268       .  A
O351       Ni362   1.923       .  S
C352        O358   1.276       .  A
C352       C1866   1.470       .  S
C353       C1837   1.487       .  S
H354        O355   0.967       .  S
O355       Ni363   1.903       .  S
O355       Ni357   1.900       .  S
O355       Ni362   1.900       .  S
O356       Ni357   1.909       .  S
Ni357       O361   1.908       .  S
Ni357       O359   1.945       .  S
O358       Ni363   1.940       .  S
C360        O361   1.273       .  A
C360       C1770   1.479       .  S
O365       Ni371   1.908       .  S
O365        C386   1.266       .  A
O366       Ni389   1.910       .  S
O366        C375   1.269       .  A
O367       Ni371   1.889       .  S
O367       Ni389   1.896       .  S
O367       Ni383   1.934       .  S
O367        H390   0.966       .  S
C368        O385   1.295       .  A
C368        O377   1.275       .  A
C368       C1690   1.495       .  S
O369       Ni388   1.937       .  S
O369        C375   1.278       .  A
O370       Ni388   1.933       .  S
O370        C372   1.272       .  A
Ni371       O374   1.918       .  S
Ni371       O376   1.898       .  S
C372        O382   1.259       .  A
C372       C1805   1.487       .  S
O373       Ni389   1.923       .  S
O373        C379   1.274       .  A
O374        C379   1.276       .  A
C375       C2429   1.484   1_455  S
O376        C378   1.268       .  A
O377       Ni388   1.912       .  S
C378        O384   1.277       .  A
C378       C2525   1.468       .  S
C379       C1706   1.481       .  S
H380        O381   0.966       .  S
O381       Ni389   1.900       .  S
O381       Ni383   1.899       .  S
O381       Ni388   1.896       .  S
O382       Ni383   1.885       .  S
Ni383       O387   1.931       .  S
Ni383       O385   1.954       .  S
O384       Ni389   1.938       .  S
C386        O387   1.274       .  A
C386       C1725   1.494       .  S
O391       Ni397   1.914       .  S
O391        C412   1.267       .  A
O392       Ni415   1.913   1_455  S
O392        C401   1.271       .  A
O393       Ni397   1.895       .  S
O393       Ni415   1.898       .  S
O393       Ni409   1.932       .  S
O393        H416   0.966       .  S
C394        O411   1.291       .  A
C394        O403   1.278       .  A
C394       C1658   1.497       .  S
O395       Ni414   1.933       .  S
O395        C401   1.273   1_655  A
O396       Ni414   1.922       .  S
O396        C398   1.270       .  A
Ni397       O400   1.922       .  S
Ni397       O402   1.896       .  S
C398        O408   1.264       .  A
C398       C1677   1.499       .  S
O399       Ni415   1.923   1_455  S
O399        C405   1.276   1_455  A
O400        C405   1.276       .  A
C401       C1853   1.481       .  S
O402        C404   1.267   1_655  A
O403       Ni414   1.923       .  S
C404        O410   1.282       .  A
C404       C2122   1.483       .  S
C405       C1709   1.482   1_655  S
H406        O407   0.966       .  S
O407       Ni415   1.916       .  S
O407       Ni409   1.895       .  S
O407       Ni414   1.905       .  S
O408       Ni409   1.900       .  S
Ni409       O413   1.914       .  S
Ni409       O411   1.953       .  S
O410       Ni415   1.957   1_455  S
C412        O413   1.269       .  A
C412       C1757   1.481       .  S
O417       Ni423   1.908       .  S
O417        C438   1.263       .  A
O418       Ni441   1.911       .  S
O418        C427   1.268       .  A
O419       Ni423   1.896       .  S
O419       Ni441   1.900       .  S
O419       Ni435   1.924       .  S
O419        H442   0.966       .  S
C420        O437   1.287       .  A
C420        O429   1.278       .  A
C420       C1626   1.478       .  S
O421       Ni440   1.939       .  S
O421        C427   1.274       .  A
O422       Ni440   1.920       .  S
O422        C424   1.269       .  A
Ni423       O426   1.907       .  S
Ni423       O428   1.901       .  S
C424        O434   1.267       .  A
C424       C1722   1.502       .  S
O425       Ni441   1.917       .  S
O425        C431   1.274       .  A
O426        C431   1.275       .  A
C427       C2301   1.480       .  S
O428        C430   1.267       .  A
O429       Ni440   1.921       .  S
C430        O436   1.273       .  A
C430       C2445   1.470       .  S
C431       C1642   1.467       .  S
H432        O433   0.967       .  S
O433       Ni441   1.902       .  S
O433       Ni435   1.903       .  S
O433       Ni440   1.897       .  S
O434       Ni435   1.909       .  S
Ni435       O439   1.932       .  S
Ni435       O437   1.933       .  S
O436       Ni441   1.936       .  S
C438        O439   1.273       .  A
C438       C1821   1.483       .  S
O443       Ni449   1.890       .  S
O443        C464   1.260       .  A
O444       Ni467   1.922       .  S
O444        C453   1.272       .  A
O445       Ni449   1.891       .  S
O445       Ni467   1.899       .  S
O445       Ni461   1.941       .  S
O445        H468   0.966       .  S
C446        O463   1.295       .  A
C446        O455   1.272       .  A
C446       C1613   1.488       .  S
O447       Ni466   1.926       .  S
O447        C453   1.271       .  A
O448       Ni466   1.929       .  S
O448        C450   1.273       .  A
Ni449       O452   1.911       .  S
Ni449       O454   1.894       .  S
C450        O460   1.261       .  A
C450       C1773   1.485       .  S
O451       Ni467   1.916       .  S
O451        C457   1.276       .  A
O452        C457   1.274       .  A
C453       C2077   1.486       .  S
O454        C456   1.266       .  A
O455       Ni466   1.897       .  S
C456        O462   1.276       .  A
C456       C1978   1.474       .  S
C457       C1645   1.475       .  S
H458        O459   0.967       .  S
O459       Ni467   1.900       .  S
O459       Ni461   1.903       .  S
O459       Ni466   1.889       .  S
O460       Ni461   1.909       .  S
Ni461       O465   1.945       .  S
Ni461       O463   1.950       .  S
O462       Ni467   1.944       .  S
C464        O465   1.273       .  A
C464       C1674   1.502       .  S
O469       Ni475   1.896       .  S
O469        C490   1.259       .  A
O470       Ni493   1.911       .  S
O470        C479   1.271       .  A
O471       Ni475   1.886       .  S
O471       Ni493   1.893       .  S
O471       Ni487   1.921       .  S
O471        H494   0.966       .  S
C472        O489   1.285       .  A
C472        O481   1.282       .  A
C472       C1629   1.483       .  S
O473       Ni492   1.947       .  S
O473        C479   1.278       .  A
O474       Ni492   1.922       .  S
O474        C476   1.268       .  A
Ni475       O478   1.902       .  S
Ni475       O480   1.894       .  S
C476        O486   1.266       .  A
C476       C1581   1.501       .  S
O477       Ni493   1.922       .  S
O477        C483   1.279       .  A
O478        C483   1.273       .  A
C479       C2253   1.484       .  S
O480        C482   1.265       .  A
O481       Ni492   1.935       .  S
C482        O488   1.277       .  A
C482       C2634   1.475       .  S
C483       C1597   1.469       .  S
H484        O485   0.967       .  S
O485       Ni493   1.904       .  S
O485       Ni487   1.905       .  S
O485       Ni492   1.899       .  S
O486       Ni487   1.906       .  S
Ni487       O491   1.937       .  S
Ni487       O489   1.927       .  S
O488       Ni493   1.949       .  S
C490        O491   1.272       .  A
C490       C1562   1.482       .  S
O495       Ni501   1.910       .  S
O495        C516   1.264       .  A
O496       Ni519   1.910       .  S
O496        C505   1.269       .  A
O497       Ni501   1.899       .  S
O497       Ni519   1.903       .  S
O497       Ni513   1.918       .  S
O497        H520   0.967       .  S
C498        O515   1.282       .  A
C498        O507   1.278       .  A
C498       C1485   1.479       .  S
O499       Ni518   1.932       .  S
O499        C505   1.272       .  A
O500       Ni518   1.910       .  S
O500        C502   1.266       .  A
Ni501       O504   1.906       .  S
Ni501       O506   1.897       .  S
C502        O512   1.265       .  A
C502       C1514   1.471       .  S
O503       Ni519   1.911       .  S
O503        C509   1.272       .  A
O504        C509   1.273       .  A
C505       C1549   1.477       .  S
O506        C508   1.268       .  A
O507       Ni518   1.916       .  S
C508        O514   1.274       .  A
C508       C1498   1.467       .  S
C509       C1594   1.466       .  S
H510        O511   0.966       .  S
O511       Ni519   1.899       .  S
O511       Ni513   1.910       .  S
O511       Ni518   1.900       .  S
O512       Ni513   1.904       .  S
Ni513       O517   1.923       .  S
Ni513       O515   1.927       .  S
O514       Ni519   1.935       .  S
C516        O517   1.270       .  A
C516       C1530   1.486       .  S
O521       Ni527   1.906       .  S
O521        C542   1.263       .  A
O522       Ni545   1.913       .  S
O522        C531   1.271       .  A
O523       Ni527   1.900       .  S
O523       Ni545   1.901       .  S
O523       Ni539   1.914       .  S
O523        H546   0.965       .  S
C524        O541   1.280       .  A
C524        O533   1.280       .  A
C524       C1693   1.472       .  S
O525       Ni544   1.939       .  S
O525        C531   1.275       .  A
O526       Ni544   1.916       .  S
O526        C528   1.269       .  A
Ni527       O530   1.902       .  S
Ni527       O532   1.896       .  S
C528        O538   1.264       .  A
C528       C1565   1.485       .  S
O529       Ni545   1.921       .  S
O529        C535   1.277       .  A
O530        C535   1.271       .  A
C531       C2365   1.483       .  S
O532        C534   1.266       .  A
O533       Ni544   1.937       .  S
C534        O540   1.278       .  A
C534       C2269   1.477       .  S
C535       C1466   1.466       .  S
H536        O537   0.967       .  S
O537       Ni545   1.906       .  S
O537       Ni539   1.899       .  S
O537       Ni544   1.906       .  S
O538       Ni539   1.913       .  S
Ni539       O543   1.903       .  S
Ni539       O541   1.914       .  S
O540       Ni545   1.949       .  S
C542        O543   1.264       .  A
C542       C1453   1.475       .  S
O547       Ni553   1.909   1_545  S
O547        C568   1.266       .  A
O548       Ni571   1.906       .  S
O548        C557   1.268       .  A
O549       Ni553   1.891       .  S
O549       Ni571   1.900       .  S
O549       Ni565   1.914       .  S
O549        H572   0.967       .  S
C550        O567   1.285       .  A
C550        O559   1.281       .  A
C550       C1386   1.482       .  S
O551       Ni570   1.946       .  S
O551        C557   1.280       .  A
O552       Ni570   1.921       .  S
O552        C554   1.271       .  A
Ni553       O556   1.902       .  S
Ni553       O558   1.903       .  S
C554        O564   1.263       .  A
C554       C1434   1.481   1_455  S
O555       Ni571   1.918       .  S
O555        C561   1.272       .  A
O556        C561   1.272       .  A
C557       C1421   1.486       .  S
O558        C560   1.270       .  A
O559       Ni570   1.927       .  S
C560        O566   1.274       .  A
C560       C1402   1.466       .  S
C561       C1469   1.470       .  S
H562        O563   0.967       .  S
O563       Ni571   1.898       .  S
O563       Ni565   1.901       .  S
O563       Ni570   1.892       .  S
O564       Ni565   1.911       .  S
Ni565       O569   1.907       .  S
Ni565       O567   1.931       .  S
O566       Ni571   1.931       .  S
C568        O569   1.269   1_545  A
C568       C1517   1.482       .  S
O573       Ni579   1.899       .  S
O573        C594   1.263       .  A
O574       Ni597   1.925       .  S
O574        C583   1.274       .  A
O575       Ni579   1.888       .  S
O575       Ni597   1.896       .  S
O575       Ni591   1.934       .  S
O575        H598   0.966       .  S
C576        O593   1.293       .  A
C576        O585   1.277       .  A
C576       C1789   1.496       .  S
O577       Ni596   1.930       .  S
O577        C583   1.273       .  A
O578       Ni596   1.922       .  S
O578        C580   1.267       .  A
Ni579       O582   1.914       .  S
Ni579       O584   1.894       .  S
C580        O590   1.261       .  A
C580       C1450   1.478       .  S
O581       Ni597   1.924       .  S
O581        C587   1.279       .  A
O582        C587   1.274       .  A
C583       C2589   1.489   1_565  S
O584        C586   1.267       .  A
O585       Ni596   1.920       .  S
C586        O592   1.281       .  A
C586       C2397   1.478       .  S
C587       C1370   1.483       .  S
H588        O589   0.966       .  S
O589       Ni597   1.907       .  S
O589       Ni591   1.903       .  S
O589       Ni596   1.902       .  S
O590       Ni591   1.891       .  S
Ni591       O595   1.934       .  S
Ni591       O593   1.946       .  S
O592       Ni597   1.955       .  S
C594        O595   1.272       .  A
C594       C1578   1.492       .  S
O599       Ni605   1.914       .  S
O599        C620   1.265       .  A
O600       Ni623   1.910       .  S
O600        C609   1.269       .  A
O601       Ni605   1.894       .  S
O601       Ni623   1.903       .  S
O601       Ni617   1.922       .  S
O601        H624   0.966       .  S
C602        O619   1.286   1_545  A
C602        O611   1.279       .  A
C602       C1322   1.481       .  S
O603       Ni622   1.938       .  S
O603        C609   1.278   1_545  A
O604       Ni622   1.923       .  S
O604        C606   1.269       .  A
Ni605       O608   1.909       .  S
Ni605       O610   1.900       .  S
C606        O616   1.266       .  A
C606       C1533   1.499       .  S
O607       Ni623   1.925       .  S
O607        C613   1.275       .  A
O608        C613   1.273       .  A
C609       C1354   1.480       .  S
O610        C612   1.268       .  A
O611       Ni622   1.926       .  S
C612        O618   1.277       .  A
C612       C1338   1.477       .  S
C613       C1373   1.469       .  S
H614        O615   0.968       .  S
O615       Ni623   1.903       .  S
O615       Ni617   1.902       .  S
O615       Ni622   1.899   1_565  S
O616       Ni617   1.908   1_545  S
Ni617       O621   1.922       .  S
Ni617       O619   1.931       .  S
O618       Ni623   1.946       .  S
C620        O621   1.271       .  A
C620       C1437   1.474       .  S
O625       Ni631   1.908       .  S
O625        C646   1.264       .  A
O626       Ni649   1.906       .  S
O626        C635   1.268       .  A
O627       Ni631   1.894       .  S
O627       Ni649   1.895       .  S
O627       Ni643   1.922   1_556  S
O627        H650   0.966       .  S
C628        O645   1.286       .  A
C628        O637   1.277       .  A
C628       C1661   1.483       .  S
O629       Ni648   1.934   1_556  S
O629        C635   1.273       .  A
O630       Ni648   1.907   1_556  S
O630        C632   1.265       .  A
Ni631       O634   1.911       .  S
Ni631       O636   1.899       .  S
C632        O642   1.273   1_556  A
C632       C1290   1.487       .  S
O633       Ni649   1.932       .  S
O633        C639   1.279       .  A
O634        C639   1.274       .  A
C635       C1901   1.474   1_655  S
O636        C638   1.266       .  A
O637       Ni648   1.932       .  S
C638        O644   1.276       .  A
C638       C2042   1.477       .  S
C639       C1309   1.486       .  S
H640        O641   0.966       .  S
O641       Ni649   1.913   1_554  S
O641       Ni643   1.914       .  S
O641       Ni648   1.905       .  S
O642       Ni643   1.927       .  S
Ni643       O647   1.939       .  S
Ni643       O645   1.936       .  S
O644       Ni649   1.947       .  S
C646        O647   1.277   1_556  A
C646       C1277   1.488       .  S
O651       Ni657   1.929       .  S
O651        C672   1.269       .  A
O652       Ni675   1.908       .  S
O652        C661   1.268       .  A
O653       Ni657   1.902       .  S
O653       Ni675   1.904       .  S
O653       Ni669   1.919       .  S
O653        H676   0.966       .  S
C654        O671   1.282       .  A
C654        O663   1.278   1_655  A
C654       C1389   1.480   1_655  S
O655       Ni674   1.933       .  S
O655        C661   1.273       .  A
O656       Ni674   1.917   1_455  S
O656        C658   1.268       .  A
Ni657       O660   1.917       .  S
Ni657       O662   1.907       .  S
C658        O668   1.267   1_455  A
C658       C1242   1.490       .  S
O659       Ni675   1.917       .  S
O659        C665   1.274       .  A
O660        C665   1.273       .  A
C661       C1258   1.471       .  S
O662        C664   1.270       .  A
O663       Ni674   1.922   1_455  S
C664        O670   1.274       .  A
C664       C1210   1.470       .  S
C665       C1306   1.475       .  S
H666        O667   0.966       .  S
O667       Ni675   1.903       .  S
O667       Ni669   1.903       .  S
O667       Ni674   1.902       .  S
O668       Ni669   1.911       .  S
Ni669       O673   1.908       .  S
Ni669       O671   1.928       .  S
O670       Ni675   1.931       .  S
C672        O673   1.273       .  A
C672       C1226   1.497       .  S
O677       Ni683   1.906       .  S
O677        C698   1.263       .  A
O678       Ni701   1.912       .  S
O678        C687   1.269       .  A
O679       Ni683   1.897       .  S
O679       Ni701   1.900       .  S
O679       Ni695   1.929   1_556  S
O679        H702   0.968       .  S
C680        O697   1.289       .  A
C680        O689   1.279       .  A
C680       C1741   1.491       .  S
O681       Ni700   1.941   1_556  S
O681        C687   1.276       .  A
O682       Ni700   1.925   1_556  S
O682        C684   1.271       .  A
Ni683       O686   1.909       .  S
Ni683       O688   1.904       .  S
C684        O694   1.264   1_556  A
C684       C1197   1.487       .  S
O685       Ni701   1.931       .  S
O685        C691   1.278       .  A
O686        C691   1.273       .  A
C687       C2013   1.483       .  S
O688        C690   1.268       .  A
O689       Ni700   1.922       .  S
C690        O696   1.272       .  A
C690       C2202   1.470       .  S
C691       C1178   1.468       .  S
H692        O693   0.968       .  S
O693       Ni701   1.908   1_554  S
O693       Ni695   1.905       .  S
O693       Ni700   1.901       .  S
O694       Ni695   1.897       .  S
Ni695       O699   1.930       .  S
Ni695       O697   1.943       .  S
O696       Ni701   1.931       .  S
C698        O699   1.273   1_556  A
C698       C1293   1.477       .  S
O703       Ni709   1.893   1_455  S
O703        C724   1.264       .  A
O704       Ni727   1.905       .  S
O704        C713   1.264       .  A
O705       Ni709   1.913       .  S
O705       Ni727   1.912       .  S
O705       Ni721   1.948       .  S
O705        H728   0.966       .  S
C706        O723   1.286       .  A
C706        O715   1.276       .  A
C706       C1325   1.485       .  S
O707       Ni726   1.936       .  S
O707        C713   1.273       .  A
O708       Ni726   1.917       .  S
O708        C710   1.271       .  A
Ni709       O712   1.929       .  S
Ni709       O714   1.884       .  S
C710        O720   1.267       .  A
C710       C1229   1.505   1_545  S
O711       Ni727   1.898       .  S
O711        C717   1.258       .  A
O712        C717   1.267       .  A
C713       C1162   1.481       .  S
O714        C716   1.267       .  A
O715       Ni726   1.910       .  S
C716        O722   1.286       .  A
C716       C1130   1.478       .  S
C717       C1181   1.484       .  S
H718        O719   0.967       .  S
O719       Ni727   1.887       .  S
O719       Ni721   1.902       .  S
O719       Ni726   1.908       .  S
O720       Ni721   1.924       .  S
Ni721       O725   1.924       .  S
Ni721       O723   1.943       .  S
O722       Ni727   1.978       .  S
C724        O725   1.274   1_455  A
C724       C1146   1.463       .  S
O729       Ni735   1.921       .  S
O729        C750   1.269       .  A
O730       Ni753   1.914       .  S
O730        C739   1.272       .  A
O731       Ni735   1.897       .  S
O731       Ni753   1.904       .  S
O731       Ni747   1.911       .  S
O731        H754   0.966       .  S
C732        O749   1.282       .  A
C732        O741   1.280       .  A
C732       C1610   1.467       .  S
O733       Ni752   1.938   1_556  S
O733        C739   1.276       .  A
O734       Ni752   1.920   1_556  S
O734        C736   1.266       .  A
Ni735       O738   1.914       .  S
Ni735       O740   1.903       .  S
C736        O746   1.266       .  A
C736       C1274   1.492       .  S
O737       Ni753   1.899       .  S
O737        C743   1.270       .  A
O738        C743   1.273       .  A
C739       C2157   1.481       .  S
O740        C742   1.269       .  A
O741       Ni752   1.934       .  S
C742        O748   1.280       .  A
C742       C1917   1.477       .  S
C743       C1114   1.464       .  S
H744        O745   0.968   1_554  S
O745       Ni753   1.890       .  S
O745       Ni747   1.895       .  S
O745       Ni752   1.900   1_556  S
O746       Ni747   1.911       .  S
Ni747       O751   1.907       .  S
Ni747       O749   1.916   1_556  S
O748       Ni753   1.948       .  S
C750        O751   1.266       .  A
C750       C1194   1.495       .  S
O755       Ni761   1.911       .  S
O755        C776   1.266       .  A
O756       Ni779   1.906       .  S
O756        C765   1.266       .  A
O757       Ni761   1.898       .  S
O757       Ni779   1.896       .  S
O757       Ni773   1.913       .  S
O757        H780   0.967       .  S
C758        O775   1.278       .  A
C758        O767   1.277       .  A
C758       C1482   1.469       .  S
O759       Ni778   1.936       .  S
O759        C765   1.274       .  A
O760       Ni778   1.907       .  S
O760        C762   1.266       .  A
Ni761       O764   1.912       .  S
Ni761       O766   1.898       .  S
C762        O772   1.270       .  A
C762       C1149   1.476       .  S
O763       Ni779   1.897       .  S
O763        C769   1.271       .  A
O764        C769   1.274       .  A
C765       C1098   1.480       .  S
O766        C768   1.266       .  A
O767       Ni778   1.920       .  S
C768        O774   1.275       .  A
C768       C1082   1.472       .  S
C769       C1117   1.466       .  S
H770        O771   0.966       .  S
O771       Ni779   1.901       .  S
O771       Ni773   1.912       .  S
O771       Ni778   1.903       .  S
O772       Ni773   1.918       .  S
Ni773       O777   1.919       .  S
Ni773       O775   1.920       .  S
O774       Ni779   1.938       .  S
C776        O777   1.270       .  A
C776       C1245   1.478       .  S
O781       Ni787   1.942       .  S
O781        C802   1.277       .  A
O782       Ni805   1.915       .  S
O782        C791   1.270       .  A
O783       Ni787   1.897       .  S
O783       Ni805   1.902       .  S
O783       Ni799   1.901       .  S
O783        H806   0.958       .  S
C784        O801   1.272       .  A
C784        O793   1.276       .  A
C784       C1069   1.503       .  S
O785       Ni804   1.918       .  S
O785        C791   1.266       .  A
O786       Ni804   1.899       .  S
O786        C788   1.268       .  A
Ni787       O790   1.932       .  S
Ni787       O792   1.915       .  S
C788        O798   1.275       .  A
C788       C1546   1.473       .  S
O789       Ni805   1.936       .  S
O789        C795   1.286       .  A
O790        C795   1.281       .  A
C791       C1037   1.471       .  S
O792        C794   1.267       .  A
O793       Ni804   1.919       .  S
C794        O800   1.265       .  A
C794       C1050   1.475       .  S
C795       C2349   1.490       .  S
H796        O797   0.950       .  S
O797       Ni805   1.928       .  S
O797       Ni799   1.906       .  S
O797       Ni804   1.904       .  S
O798       Ni799   1.940       .  S
Ni799       O803   1.910       .  S
Ni799       O801   1.925       .  S
O800       Ni805   1.910       .  S
C802        O803   1.270       .  A
C802       C1341   1.485       .  S
O807       Ni813   1.939       .  S
O807        C828   1.275       .  A
O808       Ni831   1.913       .  S
O808        C817   1.269       .  A
O809       Ni813   1.901       .  S
O809       Ni831   1.900       .  S
O809       Ni825   1.909       .  S
O809        H832   0.966       .  S
C810        O827   1.275       .  A
C810        O819   1.273       .  A
C810       C1066   1.477       .  S
O811       Ni830   1.910       .  S
O811        C817   1.266       .  A
O812       Ni830   1.903       .  S
O812        C814   1.269       .  A
Ni813       O816   1.925       .  S
Ni813       O818   1.920       .  S
C814        O824   1.275       .  A
C814       C1101   1.475       .  S
O815       Ni831   1.943       .  S
O815        C821   1.288       .  A
O816        C821   1.280       .  A
C817       C1002   1.486       .  S
O818        C820   1.270       .  A
O819       Ni830   1.918       .  S
C820        O826   1.264       .  A
C820       C1021   1.480       .  S
C821       C1997   1.489       .  S
H822        O823   0.966       .  S
O823       Ni831   1.934       .  S
O823       Ni825   1.902       .  S
O823       Ni830   1.899       .  S
O824       Ni825   1.940       .  S
Ni825       O829   1.904       .  S
Ni825       O827   1.929       .  S
O826       Ni831   1.906       .  S
C828        O829   1.268       .  A
C828       C1213   1.473       .  S
O833       Ni839   1.940       .  S
O833        C854   1.276   1_565  A
O834       Ni857   1.909       .  S
O834        C843   1.268       .  A
O835       Ni839   1.893       .  S
O835       Ni857   1.896       .  S
O835       Ni851   1.889       .  S
O835        H858   0.967       .  S
C836        O853   1.267   1_565  A
C836        O845   1.272       .  A
C836        C973   1.462   1_565  S
O837       Ni856   1.923       .  S
O837        C843   1.271       .  A
O838       Ni856   1.903       .  S
O838        C840   1.270   1_565  A
Ni839       O842   1.930       .  S
Ni839       O844   1.922       .  S
C840        O850   1.278       .  A
C840       C1165   1.472       .  S
O841       Ni857   1.925       .  S
O841        C847   1.285       .  A
O842        C847   1.280       .  A
C843       C1018   1.490       .  S
O844        C846   1.270       .  A
O845       Ni856   1.916       .  S
C846        O852   1.263       .  A
C846        C989   1.485       .  S
C847       C1882   1.482       .  S
H848        O849   0.965       .  S
O849       Ni857   1.919       .  S
O849       Ni851   1.906       .  S
O849       Ni856   1.895       .  S
O850       Ni851   1.939   1_545  S
Ni851       O855   1.909   1_565  S
Ni851       O853   1.903   1_565  S
O852       Ni857   1.911       .  S
C854        O855   1.270       .  A
C854       C1085   1.479       .  S
O859       Ni865   1.937       .  S
O859        C880   1.273       .  A
O860       Ni883   1.926       .  S
O860        C869   1.272       .  A
O861       Ni865   1.900       .  S
O861       Ni883   1.912       .  S
O861       Ni877   1.903       .  S
O861        H884   0.966       .  S
C862        O879   1.271       .  A
C862        O871   1.276       .  A
C862        C970   1.483       .  S
O863       Ni882   1.905       .  S
O863        C869   1.263       .  A
O864       Ni882   1.897       .  S
O864        C866   1.266       .  A
Ni865       O868   1.923       .  S
Ni865       O870   1.907       .  S
C866        O876   1.273       .  A
C866       C1357   1.472       .  S
O867       Ni883   1.928       .  S
O867        C873   1.281       .  A
O868        C873   1.278       .  A
C869        C954   1.485       .  S
O870        C872   1.266       .  A
O871       Ni882   1.908       .  S
C872        O878   1.272       .  A
C872       C1034   1.486       .  S
C873       C2237   1.477       .  S
H874        O875   0.967       .  S
O875       Ni883   1.919       .  S
O875       Ni877   1.896       .  S
O875       Ni882   1.899       .  S
O876       Ni877   1.938       .  S
Ni877       O881   1.901       .  S
Ni877       O879   1.908       .  S
O878       Ni883   1.927       .  S
C880        O881   1.264       .  A
C880       C1405   1.471   1_545  S
O885       Ni891   1.951       .  S
O885        C906   1.279       .  A
O886       Ni909   1.930       .  S
O886        C895   1.272       .  A
O887       Ni891   1.899       .  S
O887       Ni909   1.908       .  S
O887       Ni903   1.901       .  S
O887        H910   0.966       .  S
C888        O905   1.278       .  A
C888        O897   1.272       .  A
C888        C938   1.471       .  S
O889       Ni908   1.902       .  S
O889        C895   1.262       .  A
O890       Ni908   1.901       .  S
O890        C892   1.268       .  A
Ni891       O894   1.930       .  S
Ni891       O896   1.924       .  S
C892        O902   1.272       .  A
C892       C1261   1.470       .  S
O893       Ni909   1.924       .  S
O893        C899   1.283       .  A
O894        C899   1.281       .  A
C895        C986   1.479       .  S
O896        C898   1.270       .  A
O897       Ni908   1.903       .  S
C898        O904   1.264       .  A
C898       C1005   1.497       .  S
C899       C2141   1.477       .  S
H900        O901   0.966       .  S
O901       Ni909   1.914       .  S
O901       Ni903   1.890       .  S
O901       Ni908   1.886       .  S
O902       Ni903   1.933       .  S
Ni903       O907   1.903       .  S
Ni903       O905   1.925       .  S
O904       Ni909   1.897       .  S
C906        O907   1.268       .  A
C906       C1133   1.480   1_455  S
O911       Ni917   1.940       .  S
O911        C932   1.275   1_655  A
O912       Ni935   1.909       .  S
O912        C921   1.268       .  A
O913       Ni917   1.902       .  S
O913       Ni935   1.897       .  S
O913       Ni929   1.898       .  S
O913        H936   0.967       .  S
C914        O931   1.271   1_655  A
C914        O923   1.273       .  A
C914        C941   1.479   1_655  S
O915       Ni934   1.918       .  S
O915        C921   1.268       .  A
O916       Ni934   1.895       .  S
O916        C918   1.268   1_655  A
Ni917       O920   1.929       .  S
Ni917       O922   1.922       .  S
C918        O928   1.279       .  A
C918       C1418   1.475       .  S
O919       Ni935   1.935       .  S
O919        C925   1.286       .  A
O920        C925   1.279       .  A
C921       C1053   1.483       .  S
O922        C924   1.267       .  A
O923       Ni934   1.915       .  S
C924        O930   1.265       .  A
C924        C957   1.497       .  S
C925       C2573   1.489       .  S
H926        O927   0.967       .  S
O927       Ni935   1.921       .  S
O927       Ni929   1.902       .  S
O927       Ni934   1.897       .  S
O928       Ni929   1.949   1_455  S
Ni929       O933   1.904   1_655  S
Ni929       O931   1.910   1_655  S
O930       Ni935   1.905       .  S
C932        O933   1.269       .  A
C932       C1501   1.476       .  S
C937        C938   1.401       .  A
C937        C942   1.402   1_455  A
C937        H944   1.084   1_455  S
C938        C939   1.416       .  A
C939        C940   1.404       .  A
C939        C946   1.521       .  S
C940        C941   1.406       .  A
C940        H945   1.083       .  S
C941        C942   1.419   1_455  A
C942        C943   1.520       .  S
C943        F947   1.385       .  S
C943        F948   1.384       .  S
C943        F949   1.383       .  S
C946        F950   1.384       .  S
C946        F951   1.382       .  S
C946        F952   1.385       .  S
C953        C954   1.408       .  A
C953        C958   1.410       .  A
C953        H960   1.083       .  S
C954        C955   1.415       .  A
C955        C956   1.404       .  A
C955        C962   1.521       .  S
C956        C957   1.413       .  A
C956        H961   1.082       .  S
C957        C958   1.422       .  A
C958        C959   1.521       .  S
C959        F963   1.385       .  S
C959        F964   1.383       .  S
C959        F965   1.379       .  S
C962        F966   1.384       .  S
C962        F967   1.383       .  S
C962        F968   1.385       .  S
C969        C970   1.407       .  A
C969        C974   1.399       .  A
C969        H976   1.083       .  S
C970        C971   1.427       .  A
C971        C972   1.404   1_545  A
C971        C978   1.523   1_545  S
C972        C973   1.397   1_565  A
C972        H977   1.083       .  S
C973        C974   1.411       .  A
C974        C975   1.520       .  S
C975        F979   1.385       .  S
C975        F980   1.383       .  S
C975        F981   1.382       .  S
C978        F982   1.383       .  S
C978        F983   1.383       .  S
C978        F984   1.385       .  S
C985        C986   1.402       .  A
C985        C990   1.405       .  A
C985        H992   1.085       .  S
C986        C987   1.418       .  A
C987        C988   1.407       .  A
C987        C994   1.520       .  S
C988        C989   1.404       .  A
C988        H993   1.082       .  S
C989        C990   1.423       .  A
C990        C991   1.519       .  S
C991        F995   1.384       .  S
C991        F996   1.382       .  S
C991        F997   1.382       .  S
C994        F998   1.384       .  S
C994        F999   1.382       .  S
C994       F1000   1.384       .  S
C1001      C1002   1.411       .  A
C1001      C1006   1.410       .  A
C1001      H1008   1.082       .  S
C1002      C1003   1.417       .  A
C1003      C1004   1.400       .  A
C1003      C1010   1.526       .  S
C1004      C1005   1.414       .  A
C1004      H1009   1.081       .  S
C1005      C1006   1.420       .  A
C1006      C1007   1.520       .  S
C1007      F1011   1.385       .  S
C1007      F1012   1.384       .  S
C1007      F1013   1.383       .  S
C1010      F1014   1.383       .  S
C1010      F1015   1.383       .  S
C1010      F1016   1.385       .  S
C1017      C1018   1.413       .  A
C1017      C1022   1.409       .  A
C1017      H1024   1.082       .  S
C1018      C1019   1.421       .  A
C1019      C1020   1.404       .  A
C1019      C1026   1.524       .  S
C1020      C1021   1.407       .  A
C1020      H1025   1.083       .  S
C1021      C1022   1.409       .  A
C1022      C1023   1.516       .  S
C1023      F1027   1.384       .  S
C1023      F1028   1.383       .  S
C1023      F1029   1.383       .  S
C1026      F1030   1.383       .  S
C1026      F1031   1.384       .  S
C1026      F1032   1.385       .  S
C1033      C1034   1.406       .  A
C1033      C1038   1.404       .  A
C1033      H1040   1.083       .  S
C1034      C1035   1.427       .  A
C1035      C1036   1.409       .  A
C1035      C1042   1.522       .  S
C1036      C1037   1.399       .  A
C1036      H1041   1.083       .  S
C1037      C1038   1.412       .  A
C1038      C1039   1.519       .  S
C1039      F1043   1.384       .  S
C1039      F1044   1.384       .  S
C1039      F1045   1.382       .  S
C1042      F1046   1.383       .  S
C1042      F1047   1.380       .  S
C1042      F1048   1.385       .  S
C1049      C1050   1.406       .  A
C1049      C1054   1.402       .  A
C1049      H1056   1.083       .  S
C1050      C1051   1.409       .  A
C1051      C1052   1.408       .  A
C1051      C1058   1.517       .  S
C1052      C1053   1.412       .  A
C1052      H1057   1.083       .  S
C1053      C1054   1.417       .  A
C1054      C1055   1.523       .  S
C1055      F1059   1.384       .  S
C1055      F1060   1.382       .  S
C1055      F1061   1.384       .  S
C1058      F1062   1.383       .  S
C1058      F1063   1.382       .  S
C1058      F1064   1.385       .  S
C1065      C1066   1.399       .  A
C1065      C1070   1.413       .  A
C1065      H1072   1.083       .  S
C1066      C1067   1.411       .  A
C1067      C1068   1.404       .  A
C1067      C1074   1.518       .  S
C1068      C1069   1.411       .  A
C1068      H1073   1.082       .  S
C1069      C1070   1.431       .  A
C1070      C1071   1.522       .  S
C1071      F1075   1.385       .  S
C1071      F1076   1.380       .  S
C1071      F1077   1.382       .  S
C1074      F1078   1.382       .  S
C1074      F1079   1.383       .  S
C1074      F1080   1.384       .  S
C1081      C1082   1.406       .  A
C1081      C1086   1.412       .  A
C1081      H1088   1.084       .  S
C1082      C1083   1.415       .  A
C1083      C1084   1.404       .  A
C1083      C1090   1.518       .  S
C1084      C1085   1.402       .  A
C1084      H1089   1.085       .  S
C1085      C1086   1.416       .  A
C1086      C1087   1.518       .  S
C1087      F1091   1.385       .  S
C1087      F1092   1.383       .  S
C1087      F1093   1.384       .  S
C1090      F1094   1.382       .  S
C1090      F1095   1.383       .  S
C1090      F1096   1.383       .  S
C1097      C1098   1.401       .  A
C1097      C1102   1.399       .  A
C1097      H1104   1.085       .  S
C1098      C1099   1.416       .  A
C1099      C1100   1.415       .  A
C1099      C1106   1.515       .  S
C1100      C1101   1.406       .  A
C1100      H1105   1.082       .  S
C1101      C1102   1.415       .  A
C1102      C1103   1.517       .  S
C1103      F1107   1.383       .  S
C1103      F1108   1.383       .  S
C1103      F1109   1.384       .  S
C1106      F1110   1.383       .  S
C1106      F1111   1.384       .  S
C1106      F1112   1.384       .  S
C1113      C1114   1.403       .  A
C1113      C1118   1.397       .  A
C1113      H1120   1.082       .  S
C1114      C1115   1.412       .  A
C1115      C1116   1.399       .  A
C1115      C1122   1.519       .  S
C1116      C1117   1.406       .  A
C1116      H1121   1.084       .  S
C1117      C1118   1.414       .  A
C1118      C1119   1.519       .  S
C1119      F1123   1.385       .  S
C1119      F1124   1.382       .  S
C1119      F1125   1.384       .  S
C1122      F1126   1.382       .  S
C1122      F1127   1.384       .  S
C1122      F1128   1.385       .  S
C1129      C1130   1.405       .  A
C1129      C1134   1.413       .  A
C1129      H1136   1.083       .  S
C1130      C1131   1.416       .  A
C1131      C1132   1.404       .  A
C1131      C1138   1.515       .  S
C1132      C1133   1.401       .  A
C1132      H1137   1.085   1_655  S
C1133      C1134   1.417       .  A
C1134      C1135   1.516       .  S
C1135      F1139   1.385       .  S
C1135      F1140   1.383       .  S
C1135      F1141   1.383       .  S
C1138      F1142   1.384       .  S
C1138      F1143   1.383   1_655  S
C1138      F1144   1.384       .  S
C1145      C1146   1.402       .  A
C1145      C1150   1.408       .  A
C1145      H1152   1.084       .  S
C1146      C1147   1.419       .  A
C1147      C1148   1.400       .  A
C1147      C1154   1.521       .  S
C1148      C1149   1.401       .  A
C1148      H1153   1.085       .  S
C1149      C1150   1.421       .  A
C1150      C1151   1.522       .  S
C1151      F1155   1.385       .  S
C1151      F1156   1.378       .  S
C1151      F1157   1.383       .  S
C1154      F1158   1.380       .  S
C1154      F1159   1.381       .  S
C1154      F1160   1.383       .  S
C1161      C1162   1.401       .  A
C1161      C1166   1.401       .  A
C1161      H1168   1.085       .  S
C1162      C1163   1.419       .  A
C1163      C1164   1.413       .  A
C1163      C1170   1.518       .  S
C1164      C1165   1.403       .  A
C1164      H1169   1.082       .  S
C1165      C1166   1.415       .  A
C1166      C1167   1.517   1_545  S
C1167      F1171   1.383       .  S
C1167      F1172   1.383       .  S
C1167      F1173   1.383       .  S
C1170      F1174   1.384       .  S
C1170      F1175   1.383       .  S
C1170      F1176   1.384       .  S
C1177      C1178   1.401       .  A
C1177      C1182   1.411       .  A
C1177      H1184   1.083       .  S
C1178      C1179   1.410       .  A
C1179      C1180   1.398       .  A
C1179      C1186   1.517       .  S
C1180      C1181   1.405       .  A
C1180      H1185   1.083       .  S
C1181      C1182   1.424       .  A
C1182      C1183   1.520       .  S
C1183      F1187   1.385       .  S
C1183      F1188   1.383       .  S
C1183      F1189   1.383       .  S
C1186      F1190   1.380       .  S
C1186      F1191   1.382       .  S
C1186      F1192   1.384       .  S
C1193      C1194   1.415       .  A
C1193      C1198   1.409       .  A
C1193      H1200   1.082       .  S
C1194      C1195   1.423   1_556  A
C1195      C1196   1.402       .  A
C1195      C1202   1.526       .  S
C1196      C1197   1.409   1_554  A
C1196      H1201   1.082       .  S
C1197      C1198   1.411       .  A
C1198      C1199   1.517       .  S
C1199      F1203   1.384       .  S
C1199      F1204   1.382       .  S
C1199      F1205   1.384       .  S
C1202      F1206   1.383       .  S
C1202      F1207   1.383       .  S
C1202      F1208   1.385       .  S
C1209      C1210   1.402       .  A
C1209      C1214   1.407       .  A
C1209      H1216   1.084       .  S
C1210      C1211   1.413       .  A
C1211      C1212   1.407       .  A
C1211      C1218   1.517       .  S
C1212      C1213   1.402       .  A
C1212      H1217   1.083       .  S
C1213      C1214   1.415       .  A
C1214      C1215   1.517       .  S
C1215      F1219   1.385       .  S
C1215      F1220   1.383       .  S
C1215      F1221   1.383       .  S
C1218      F1222   1.383       .  S
C1218      F1223   1.383       .  S
C1218      F1224   1.384       .  S
C1225      C1226   1.401       .  A
C1225      C1230   1.403       .  A
C1225      H1232   1.082       .  S
C1226      C1227   1.424       .  A
C1227      C1228   1.414       .  A
C1227      C1234   1.521       .  S
C1228      C1229   1.410       .  A
C1228      H1233   1.082       .  S
C1229      C1230   1.430       .  A
C1230      C1231   1.522   1_565  S
C1231      F1235   1.385       .  S
C1231      F1236   1.377       .  S
C1231      F1237   1.382       .  S
C1234      F1238   1.383       .  S
C1234      F1239   1.384       .  S
C1234      F1240   1.385       .  S
C1241      C1242   1.410       .  A
C1241      C1246   1.403       .  A
C1241      H1248   1.083       .  S
C1242      C1243   1.422       .  A
C1243      C1244   1.408       .  A
C1243      C1250   1.520       .  S
C1244      C1245   1.404   1_565  A
C1244      H1249   1.083       .  S
C1245      C1246   1.414   1_545  A
C1246      C1247   1.520   1_565  S
C1247      F1251   1.385       .  S
C1247      F1252   1.383       .  S
C1247      F1253   1.383       .  S
C1250      F1254   1.383       .  S
C1250      F1255   1.383       .  S
C1250      F1256   1.385       .  S
C1257      C1258   1.403       .  A
C1257      C1262   1.410   1_655  A
C1257      H1264   1.083       .  S
C1258      C1259   1.414       .  A
C1259      C1260   1.403       .  A
C1259      C1266   1.518       .  S
C1260      C1261   1.401   1_655  A
C1260      H1265   1.084       .  S
C1261      C1262   1.415       .  A
C1262      C1263   1.517       .  S
C1263      F1267   1.385       .  S
C1263      F1268   1.383       .  S
C1263      F1269   1.383       .  S
C1266      F1270   1.383       .  S
C1266      F1271   1.383       .  S
C1266      F1272   1.385       .  S
C1273      C1274   1.408       .  A
C1273      C1278   1.406       .  A
C1273      H1280   1.083       .  S
C1274      C1275   1.422       .  A
C1275      C1276   1.414       .  A
C1275      C1282   1.522       .  S
C1276      C1277   1.409       .  A
C1276      H1281   1.083   1_556  S
C1277      C1278   1.414       .  A
C1278      C1279   1.517       .  S
C1279      F1283   1.384       .  S
C1279      F1284   1.383       .  S
C1279      F1285   1.383       .  S
C1282      F1286   1.382   1_556  S
C1282      F1287   1.383       .  S
C1282      F1288   1.385   1_556  S
C1289      C1290   1.405       .  A
C1289      C1294   1.404       .  A
C1289      H1296   1.082       .  S
C1290      C1291   1.425   1_556  A
C1291      C1292   1.410       .  A
C1291      C1298   1.523       .  S
C1292      C1293   1.403   1_554  A
C1292      H1297   1.082       .  S
C1293      C1294   1.413       .  A
C1294      C1295   1.517       .  S
C1295      F1299   1.382       .  S
C1295      F1300   1.382       .  S
C1295      F1301   1.384       .  S
C1298      F1302   1.382       .  S
C1298      F1303   1.383   1_554  S
C1298      F1304   1.385       .  S
C1305      C1306   1.399       .  A
C1305      C1310   1.403       .  A
C1305      H1312   1.084       .  S
C1306      C1307   1.416       .  A
C1307      C1308   1.408       .  A
C1307      C1314   1.519       .  S
C1308      C1309   1.408       .  A
C1308      H1313   1.083       .  S
C1309      C1310   1.423       .  A
C1310      C1311   1.520       .  S
C1311      F1315   1.385       .  S
C1311      F1316   1.383       .  S
C1311      F1317   1.384       .  S
C1314      F1318   1.382       .  S
C1314      F1319   1.384       .  S
C1314      F1320   1.385       .  S
C1321      C1322   1.412       .  A
C1321      C1326   1.412       .  A
C1321      H1328   1.084       .  S
C1322      C1323   1.411   1_545  A
C1323      C1324   1.406   1_565  A
C1323      C1330   1.519       .  S
C1324      C1325   1.411       .  A
C1324      H1329   1.084   1_545  S
C1325      C1326   1.411       .  A
C1326      C1327   1.516       .  S
C1327      F1331   1.385       .  S
C1327      F1332   1.383       .  S
C1327      F1333   1.383       .  S
C1330      F1334   1.383       .  S
C1330      F1335   1.384       .  S
C1330      F1336   1.384       .  S
C1337      C1338   1.401       .  A
C1337      C1342   1.403       .  A
C1337      H1344   1.085       .  S
C1338      C1339   1.415       .  A
C1339      C1340   1.414       .  A
C1339      C1346   1.515       .  S
C1340      C1341   1.407       .  A
C1340      H1345   1.083       .  S
C1341      C1342   1.419       .  A
C1342      C1343   1.517       .  S
C1343      F1347   1.385       .  S
C1343      F1348   1.382       .  S
C1343      F1349   1.383       .  S
C1346      F1350   1.382       .  S
C1346      F1351   1.383       .  S
C1346      F1352   1.385       .  S
C1353      C1354   1.400   1_545  A
C1353      C1358   1.399       .  A
C1353      H1360   1.085       .  S
C1354      C1355   1.419       .  A
C1355      C1356   1.414       .  A
C1355      C1362   1.517       .  S
C1356      C1357   1.406   1_565  A
C1356      H1361   1.083       .  S
C1357      C1358   1.413       .  A
C1358      C1359   1.515       .  S
C1359      F1363   1.384       .  S
C1359      F1364   1.383       .  S
C1359      F1365   1.383       .  S
C1362      F1366   1.383       .  S
C1362      F1367   1.383       .  S
C1362      F1368   1.385       .  S
C1369      C1370   1.408       .  A
C1369      C1374   1.406       .  A
C1369      H1376   1.083       .  S
C1370      C1371   1.423       .  A
C1371      C1372   1.403       .  A
C1371      C1378   1.522       .  S
C1372      C1373   1.399       .  A
C1372      H1377   1.084       .  S
C1373      C1374   1.412       .  A
C1374      C1375   1.518       .  S
C1375      F1379   1.385       .  S
C1375      F1380   1.383       .  S
C1375      F1381   1.382       .  S
C1378      F1382   1.383       .  S
C1378      F1383   1.382       .  S
C1378      F1384   1.385       .  S
C1385      C1386   1.412       .  A
C1385      C1390   1.409   1_455  A
C1385      H1392   1.084   1_455  S
C1386      C1387   1.412       .  A
C1387      C1388   1.407       .  A
C1387      C1394   1.517       .  S
C1388      C1389   1.409       .  A
C1388      H1393   1.084       .  S
C1389      C1390   1.409   1_455  A
C1390      C1391   1.515       .  S
C1391      F1395   1.382       .  S
C1391      F1396   1.383       .  S
C1391      F1397   1.383       .  S
C1394      F1398   1.380       .  S
C1394      F1399   1.383       .  S
C1394      F1400   1.385       .  S
C1401      C1402   1.402       .  A
C1401      C1406   1.406       .  A
C1401      H1408   1.084       .  S
C1402      C1403   1.412       .  A
C1403      C1404   1.405   1_565  A
C1403      C1410   1.517       .  S
C1404      C1405   1.403   1_545  A
C1404      H1409   1.084       .  S
C1405      C1406   1.413       .  A
C1406      C1407   1.516       .  S
C1407      F1411   1.384       .  S
C1407      F1412   1.383       .  S
C1407      F1413   1.383       .  S
C1410      F1414   1.383       .  S
C1410      F1415   1.380       .  S
C1410      F1416   1.384   1_565  S
C1417      C1418   1.405       .  A
C1417      C1422   1.416       .  A
C1417      H1424   1.083       .  S
C1418      C1419   1.416       .  A
C1419      C1420   1.400       .  A
C1419      C1426   1.516   1_455  S
C1420      C1421   1.401       .  A
C1420      H1425   1.085       .  S
C1421      C1422   1.420       .  A
C1422      C1423   1.517       .  S
C1423      F1427   1.385       .  S
C1423      F1428   1.383       .  S
C1423      F1429   1.383       .  S
C1426      F1430   1.383       .  S
C1426      F1431   1.383       .  S
C1426      F1432   1.384       .  S
C1433      C1434   1.405       .  A
C1433      C1438   1.406       .  A
C1433      H1440   1.083       .  S
C1434      C1435   1.422       .  A
C1435      C1436   1.407       .  A
C1435      C1442   1.519   1_655  S
C1436      C1437   1.401       .  A
C1436      H1441   1.084       .  S
C1437      C1438   1.415       .  A
C1438      C1439   1.518       .  S
C1439      F1443   1.384       .  S
C1439      F1444   1.381       .  S
C1439      F1445   1.384       .  S
C1442      F1446   1.383       .  S
C1442      F1447   1.380       .  S
C1442      F1448   1.385       .  S
C1449      C1450   1.409       .  A
C1449      C1454   1.397       .  A
C1449      H1456   1.083       .  S
C1450      C1451   1.411       .  A
C1451      C1452   1.407       .  A
C1451      C1458   1.517       .  S
C1452      C1453   1.411       .  A
C1452      H1457   1.083       .  S
C1453      C1454   1.414       .  A
C1454      C1455   1.524       .  S
C1455      F1459   1.385       .  S
C1455      F1460   1.384       .  S
C1455      F1461   1.382       .  S
C1458      F1462   1.382       .  S
C1458      F1463   1.383       .  S
C1458      F1464   1.385       .  S
C1465      C1466   1.403       .  A
C1465      C1470   1.405       .  A
C1465      H1472   1.083       .  S
C1466      C1467   1.416       .  A
C1467      C1468   1.396       .  A
C1467      C1474   1.522       .  S
C1468      C1469   1.403       .  A
C1468      H1473   1.083       .  S
C1469      C1470   1.417       .  A
C1470      C1471   1.519       .  S
C1471      F1475   1.385       .  S
C1471      F1476   1.383       .  S
C1471      F1477   1.383       .  S
C1474      F1478   1.382       .  S
C1474      F1479   1.383       .  S
C1474      F1480   1.385       .  S
C1481      C1482   1.408       .  A
C1481      C1486   1.409       .  A
C1481      H1488   1.082       .  S
C1482      C1483   1.405       .  A
C1483      C1484   1.400       .  A
C1483      C1490   1.516       .  S
C1484      C1485   1.410       .  A
C1484      H1489   1.082       .  S
C1485      C1486   1.412       .  A
C1486      C1487   1.517       .  S
C1487      F1491   1.384       .  S
C1487      F1492   1.383       .  S
C1487      F1493   1.384       .  S
C1490      F1494   1.383       .  S
C1490      F1495   1.383       .  S
C1490      F1496   1.385       .  S
C1497      C1498   1.400       .  A
C1497      C1502   1.405       .  A
C1497      H1504   1.084       .  S
C1498      C1499   1.413       .  A
C1499      C1500   1.407       .  A
C1499      C1506   1.515       .  S
C1500      C1501   1.403       .  A
C1500      H1505   1.083       .  S
C1501      C1502   1.418       .  A
C1502      C1503   1.518       .  S
C1503      F1507   1.385       .  S
C1503      F1508   1.382   1_455  S
C1503      F1509   1.383       .  S
C1506      F1510   1.381       .  S
C1506      F1511   1.383       .  S
C1506      F1512   1.385       .  S
C1513      C1514   1.404       .  A
C1513      C1518   1.396       .  A
C1513      H1520   1.083       .  S
C1514      C1515   1.409       .  A
C1515      C1516   1.409       .  A
C1515      C1522   1.518       .  S
C1516      C1517   1.414       .  A
C1516      H1521   1.083       .  S
C1517      C1518   1.416       .  A
C1518      C1519   1.520       .  S
C1519      F1523   1.384       .  S
C1519      F1524   1.382       .  S
C1519      F1525   1.383       .  S
C1522      F1526   1.383       .  S
C1522      F1527   1.384       .  S
C1522      F1528   1.384       .  S
C1529      C1530   1.406   1_655  A
C1529      C1534   1.412       .  A
C1529      H1536   1.083       .  S
C1530      C1531   1.416   1_455  A
C1531      C1532   1.405       .  A
C1531      C1538   1.522   1_655  S
C1532      C1533   1.412       .  A
C1532      H1537   1.082       .  S
C1533      C1534   1.423       .  A
C1534      C1535   1.519       .  S
C1535      F1539   1.385       .  S
C1535      F1540   1.383       .  S
C1535      F1541   1.384       .  S
C1538      F1542   1.383       .  S
C1538      F1543   1.384       .  S
C1538      F1544   1.385       .  S
C1545      C1546   1.401       .  A
C1545      C1550   1.402       .  A
C1545      H1552   1.085       .  S
C1546      C1547   1.411       .  A
C1547      C1548   1.410       .  A
C1547      C1554   1.510       .  S
C1548      C1549   1.405       .  A
C1548      H1553   1.083       .  S
C1549      C1550   1.420       .  A
C1550      C1551   1.520       .  S
C1551      F1555   1.384       .  S
C1551      F1556   1.381       .  S
C1551      F1557   1.383       .  S
C1554      F1558   1.382       .  S
C1554      F1559   1.384       .  S
C1554      F1560   1.384       .  S
C1561      C1562   1.403       .  A
C1561      C1566   1.407       .  A
C1561      H1568   1.085       .  S
C1562      C1563   1.421       .  A
C1563      C1564   1.406       .  A
C1563      C1570   1.519       .  S
C1564      C1565   1.403       .  A
C1564      H1569   1.083       .  S
C1565      C1566   1.420       .  A
C1566      C1567   1.517       .  S
C1567      F1571   1.384       .  S
C1567      F1572   1.382       .  S
C1567      F1573   1.381       .  S
C1570      F1574   1.382       .  S
C1570      F1575   1.384       .  S
C1570      F1576   1.384       .  S
C1577      C1578   1.410       .  A
C1577      C1582   1.410       .  A
C1577      H1584   1.083       .  S
C1578      C1579   1.418       .  A
C1579      C1580   1.406       .  A
C1579      C1586   1.521       .  S
C1580      C1581   1.413       .  A
C1580      H1585   1.082       .  S
C1581      C1582   1.421       .  A
C1582      C1583   1.519       .  S
C1583      F1587   1.385       .  S
C1583      F1588   1.382       .  S
C1583      F1589   1.384       .  S
C1586      F1590   1.382       .  S
C1586      F1591   1.384       .  S
C1586      F1592   1.385       .  S
C1593      C1594   1.400       .  A
C1593      C1598   1.398       .  A
C1593      H1600   1.083       .  S
C1594      C1595   1.414       .  A
C1595      C1596   1.401       .  A
C1595      C1602   1.515       .  S
C1596      C1597   1.403       .  A
C1596      H1601   1.083       .  S
C1597      C1598   1.420       .  A
C1598      C1599   1.522       .  S
C1599      F1603   1.385       .  S
C1599      F1604   1.382       .  S
C1599      F1605   1.383       .  S
C1602      F1606   1.383       .  S
C1602      F1607   1.382       .  S
C1602      F1608   1.385       .  S
C1609      C1610   1.389       .  A
C1609      C1614   1.400       .  A
C1609      H1616   1.084       .  S
C1610      C1611   1.418       .  A
C1611      C1612   1.405       .  A
C1611      C1618   1.510       .  S
C1612      C1613   1.401       .  A
C1612      H1617   1.084       .  S
C1613      C1614   1.438       .  A
C1614      C1615   1.527       .  S
C1615      F1619   1.385       .  S
C1615      F1620   1.383       .  S
C1615      F1621   1.376       .  S
C1618      F1622   1.381       .  S
C1618      F1623   1.380       .  S
C1618      F1624   1.383       .  S
C1625      C1626   1.396       .  A
C1625      C1630   1.404       .  A
C1625      H1632   1.084       .  S
C1626      C1627   1.424       .  A
C1627      C1628   1.408       .  A
C1627      C1634   1.519       .  S
C1628      C1629   1.399       .  A
C1628      H1633   1.083       .  S
C1629      C1630   1.422       .  A
C1630      C1631   1.512       .  S
C1631      F1635   1.385       .  S
C1631      F1636   1.382       .  S
C1631      F1637   1.378       .  S
C1634      F1638   1.379       .  S
C1634      F1639   1.381       .  S
C1634      F1640   1.385       .  S
C1641      C1642   1.401       .  A
C1641      C1646   1.401       .  A
C1641      H1648   1.083       .  S
C1642      C1643   1.413       .  A
C1643      C1644   1.404       .  A
C1643      C1650   1.520       .  S
C1644      C1645   1.406       .  A
C1644      H1649   1.083       .  S
C1645      C1646   1.420       .  A
C1646      C1647   1.522       .  S
C1647      F1651   1.385       .  S
C1647      F1652   1.383       .  S
C1647      F1653   1.383       .  S
C1650      F1654   1.384       .  S
C1650      F1655   1.382       .  S
C1650      F1656   1.384       .  S
C1657      C1658   1.399       .  A
C1657      C1662   1.409       .  A
C1657      H1664   1.084       .  S
C1658      C1659   1.431       .  A
C1659      C1660   1.407       .  A
C1659      C1666   1.515       .  S
C1660      C1661   1.393       .  A
C1660      H1665   1.084       .  S
C1661      C1662   1.423       .  A
C1662      C1663   1.511       .  S
C1663      F1667   1.383       .  S
C1663      F1668   1.382       .  S
C1663      F1669   1.379       .  S
C1666      F1670   1.381       .  S
C1666      F1671   1.373       .  S
C1666      F1672   1.386       .  S
C1673      C1674   1.415       .  A
C1673      C1678   1.410       .  A
C1673      H1680   1.083       .  S
C1674      C1675   1.420       .  A
C1675      C1676   1.408       .  A
C1675      C1682   1.520       .  S
C1676      C1677   1.414       .  A
C1676      H1681   1.081       .  S
C1677      C1678   1.416       .  A
C1678      C1679   1.518       .  S
C1679      F1683   1.385       .  S
C1679      F1684   1.384       .  S
C1679      F1685   1.383       .  S
C1682      F1686   1.383       .  S
C1682      F1687   1.382       .  S
C1682      F1688   1.385       .  S
C1689      C1690   1.404       .  A
C1689      C1694   1.409       .  A
C1689      H1696   1.084       .  S
C1690      C1691   1.439       .  A
C1691      C1692   1.401       .  A
C1691      C1698   1.523       .  S
C1692      C1693   1.388       .  A
C1692      H1697   1.084       .  S
C1693      C1694   1.416       .  A
C1694      C1695   1.511       .  S
C1695      F1699   1.384       .  S
C1695      F1700   1.382       .  S
C1695      F1701   1.383       .  S
C1698      F1702   1.383       .  S
C1698      F1703   1.371       .  S
C1698      F1704   1.386       .  S
C1705      C1706   1.402       .  A
C1705      C1710   1.403       .  A
C1705      H1712   1.083       .  S
C1706      C1707   1.419       .  A
C1707      C1708   1.409       .  A
C1707      C1714   1.519       .  S
C1708      C1709   1.405       .  A
C1708      H1713   1.083       .  S
C1709      C1710   1.419       .  A
C1710      C1711   1.520       .  S
C1711      F1715   1.385       .  S
C1711      F1716   1.381       .  S
C1711      F1717   1.382   1_455  S
C1714      F1718   1.384       .  S
C1714      F1719   1.382       .  S
C1714      F1720   1.385       .  S
C1721      C1722   1.414       .  A
C1721      C1726   1.406       .  A
C1721      H1728   1.082       .  S
C1722      C1723   1.422       .  A
C1723      C1724   1.411       .  A
C1723      C1730   1.521       .  S
C1724      C1725   1.409       .  A
C1724      H1729   1.083       .  S
C1725      C1726   1.419       .  A
C1726      C1727   1.521       .  S
C1727      F1731   1.385       .  S
C1727      F1732   1.381       .  S
C1727      F1733   1.384       .  S
C1730      F1734   1.382       .  S
C1730      F1735   1.384       .  S
C1730      F1736   1.385       .  S
C1737      C1738   1.412       .  A
C1737      C1742   1.412       .  A
C1737      H1744   1.082       .  S
C1738      C1739   1.411       .  A
C1739      C1740   1.411       .  A
C1739      C1746   1.517       .  S
C1740      C1741   1.413       .  A
C1740      H1745   1.084       .  S
C1741      C1742   1.413       .  A
C1742      C1743   1.517       .  S
C1743      F1747   1.385       .  S
C1743      F1748   1.383       .  S
C1743      F1749   1.383       .  S
C1746      F1750   1.383       .  S
C1746      F1751   1.384       .  S
C1746      F1752   1.385       .  S
C1753      C1754   1.407       .  A
C1753      C1758   1.402       .  A
C1753      H1760   1.083       .  S
C1754      C1755   1.409       .  A
C1755      C1756   1.408       .  A
C1755      C1762   1.517       .  S
C1756      C1757   1.412       .  A
C1756      H1761   1.083       .  S
C1757      C1758   1.416       .  A
C1758      C1759   1.522       .  S
C1759      F1763   1.385       .  S
C1759      F1764   1.384       .  S
C1759      F1765   1.381       .  S
C1762      F1766   1.383       .  S
C1762      F1767   1.383       .  S
C1762      F1768   1.384       .  S
C1769      C1770   1.390       .  A
C1769      C1774   1.394       .  A
C1769      H1776   1.086       .  S
C1770      C1771   1.422       .  A
C1771      C1772   1.411       .  A
C1771      C1778   1.519       .  S
C1772      C1773   1.403       .  A
C1772      H1777   1.083       .  S
C1773      C1774   1.434       .  A
C1774      C1775   1.519       .  S
C1775      F1779   1.384       .  S
C1775      F1780   1.363       .  S
C1775      F1781   1.384       .  S
C1778      F1782   1.384       .  S
C1778      F1783   1.382       .  S
C1778      F1784   1.385       .  S
C1785      C1786   1.394       .  A
C1785      C1790   1.407       .  A
C1785      H1792   1.084       .  S
C1786      C1787   1.420       .  A
C1787      C1788   1.408       .  A
C1787      C1794   1.511       .  S
C1788      C1789   1.402       .  A
C1788      H1793   1.084       .  S
C1789      C1790   1.435       .  A
C1790      C1791   1.523       .  S
C1791      F1795   1.386       .  S
C1791      F1796   1.383       .  S
C1791      F1797   1.376       .  S
C1794      F1798   1.382       .  S
C1794      F1799   1.380       .  S
C1794      F1800   1.385       .  S
C1801      C1802   1.417       .  A
C1801      C1806   1.410       .  A
C1801      H1808   1.082       .  S
C1802      C1803   1.417       .  A
C1803      C1804   1.401       .  A
C1803      C1810   1.525       .  S
C1804      C1805   1.413       .  A
C1804      H1809   1.081       .  S
C1805      C1806   1.408       .  A
C1806      C1807   1.516       .  S
C1807      F1811   1.384       .  S
C1807      F1812   1.382       .  S
C1807      F1813   1.383       .  S
C1810      F1814   1.383       .  S
C1810      F1815   1.382       .  S
C1810      F1816   1.385       .  S
C1817      C1818   1.406       .  A
C1817      C1822   1.409       .  A
C1817      H1824   1.083       .  S
C1818      C1819   1.419       .  A
C1819      C1820   1.409       .  A
C1819      C1826   1.519       .  S
C1820      C1821   1.404       .  A
C1820      H1825   1.084       .  S
C1821      C1822   1.419       .  A
C1822      C1823   1.521       .  S
C1823      F1827   1.384       .  S
C1823      F1828   1.382       .  S
C1823      F1829   1.384       .  S
C1826      F1830   1.384       .  S
C1826      F1831   1.379       .  S
C1826      F1832   1.385       .  S
C1833      C1834   1.402       .  A
C1833      C1838   1.408       .  A
C1833      H1840   1.083       .  S
C1834      C1835   1.417       .  A
C1835      C1836   1.405       .  A
C1835      C1842   1.520       .  S
C1836      C1837   1.405       .  A
C1836      H1841   1.083       .  S
C1837      C1838   1.422       .  A
C1838      C1839   1.518       .  S
C1839      F1843   1.384       .  S
C1839      F1844   1.383       .  S
C1839      F1845   1.381       .  S
C1842      F1846   1.381       .  S
C1842      F1847   1.382   1_545  S
C1842      F1848   1.385       .  S
C1849      C1850   1.404       .  A
C1849      C1854   1.411       .  A
C1849      H1856   1.084       .  S
C1850      C1851   1.415       .  A
C1851      C1852   1.408       .  A
C1851      C1858   1.510       .  S
C1852      C1853   1.400       .  A
C1852      H1857   1.083       .  S
C1853      C1854   1.417       .  A
C1854      C1855   1.518       .  S
C1855      F1859   1.385       .  S
C1855      F1860   1.384       .  S
C1855      F1861   1.382   1_455  S
C1858      F1862   1.382       .  S
C1858      F1863   1.383       .  S
C1858      F1864   1.385       .  S
C1865      C1866   1.405       .  A
C1865      C1870   1.409       .  A
C1865      H1872   1.083       .  S
C1866      C1867   1.415   1_545  A
C1867      C1868   1.402       .  A
C1867      C1874   1.514       .  S
C1868      C1869   1.398       .  A
C1868      H1873   1.085       .  S
C1869      C1870   1.413   1_565  A
C1870      C1871   1.518       .  S
C1871      F1875   1.384       .  S
C1871      F1876   1.382       .  S
C1871      F1877   1.384   1_545  S
C1874      F1878   1.383       .  S
C1874      F1879   1.383       .  S
C1874      F1880   1.384       .  S
C1881      C1882   1.397       .  A
C1881      C1886   1.404       .  A
C1881      H1888   1.084       .  S
C1882      C1883   1.424       .  A
C1883      C1884   1.408       .  A
C1883      C1890   1.515       .  S
C1884      C1885   1.398       .  A
C1884      H1889   1.084       .  S
C1885      C1886   1.422       .  A
C1886      C1887   1.514       .  S
C1887      F1891   1.384       .  S
C1887      F1892   1.382       .  S
C1887      F1893   1.382       .  S
C1890      F1894   1.383       .  S
C1890      F1895   1.381       .  S
C1890      F1896   1.384       .  S
C1897      C1898   1.404       .  A
C1897      C1902   1.409       .  A
C1897      H1904   1.084       .  S
C1898      C1899   1.415   1_556  A
C1899      C1900   1.406       .  A
C1899      C1906   1.508       .  S
C1900      C1901   1.398   1_554  A
C1900      H1905   1.083       .  S
C1901      C1902   1.416       .  A
C1902      C1903   1.517       .  S
C1903      F1907   1.384       .  S
C1903      F1908   1.384   1_455  S
C1903      F1909   1.382       .  S
C1906      F1910   1.382       .  S
C1906      F1911   1.383       .  S
C1906      F1912   1.384       .  S
C1913      C1914   1.403       .  A
C1913      C1918   1.410       .  A
C1913      H1920   1.083       .  S
C1914      C1915   1.417   1_556  A
C1915      C1916   1.406       .  A
C1915      C1922   1.517       .  S
C1916      C1917   1.402   1_554  A
C1916      H1921   1.085       .  S
C1917      C1918   1.416       .  A
C1918      C1919   1.515       .  S
C1919      F1923   1.385       .  S
C1919      F1924   1.382       .  S
C1919      F1925   1.383       .  S
C1922      F1926   1.383       .  S
C1922      F1927   1.384       .  S
C1922      F1928   1.383       .  S
C1929      C1930   1.403       .  A
C1929      C1934   1.401       .  A
C1929      H1936   1.085       .  S
C1930      C1931   1.421       .  A
C1931      C1932   1.408       .  A
C1931      C1938   1.519       .  S
C1932      C1933   1.405       .  A
C1932      H1937   1.084       .  S
C1933      C1934   1.425       .  A
C1934      C1935   1.520       .  S
C1935      F1939   1.383       .  S
C1935      F1940   1.372       .  S
C1935      F1941   1.384       .  S
C1938      F1942   1.371       .  S
C1938      F1943   1.381       .  S
C1938      F1944   1.385       .  S
C1945      C1946   1.402       .  A
C1945      C1950   1.399   1_565  A
C1945      H1952   1.086   1_565  S
C1946      C1947   1.417       .  A
C1947      C1948   1.408       .  A
C1947      C1954   1.512       .  S
C1948      C1949   1.405   1_565  A
C1948      H1953   1.084       .  S
C1949      C1950   1.418       .  A
C1950      C1951   1.518       .  S
C1951      F1955   1.384       .  S
C1951      F1956   1.381       .  S
C1951      F1957   1.383       .  S
C1954      F1958   1.379       .  S
C1954      F1959   1.383       .  S
C1954      F1960   1.383       .  S
C1961      C1962   1.406       .  A
C1961      C1966   1.398       .  A
C1961      H1968   1.082       .  S
C1962      C1963   1.411       .  A
C1963      C1964   1.410       .  A
C1963      C1970   1.518       .  S
C1964      C1965   1.416   1_655  A
C1964      H1969   1.082       .  S
C1965      C1966   1.425   1_455  A
C1966      C1967   1.526   1_655  S
C1967      F1971   1.385       .  S
C1967      F1972   1.381   1_565  S
C1967      F1973   1.383       .  S
C1970      F1974   1.384       .  S
C1970      F1975   1.382       .  S
C1970      F1976   1.384       .  S
C1977      C1978   1.402       .  A
C1977      C1982   1.404       .  A
C1977      H1984   1.084       .  S
C1978      C1979   1.413       .  A
C1979      C1980   1.413       .  A
C1979      C1986   1.514       .  S
C1980      C1981   1.405       .  A
C1980      H1985   1.083       .  S
C1981      C1982   1.416       .  A
C1982      C1983   1.518       .  S
C1983      F1987   1.385       .  S
C1983      F1988   1.382       .  S
C1983      F1989   1.384       .  S
C1986      F1990   1.382       .  S
C1986      F1991   1.384       .  S
C1986      F1992   1.384       .  S
C1993      C1994   1.411       .  A
C1993      C1998   1.410       .  A
C1993      H2000   1.084       .  S
C1994      C1995   1.410       .  A
C1995      C1996   1.410       .  A
C1995      C2002   1.516       .  S
C1996      C1997   1.412       .  A
C1996      H2001   1.083       .  S
C1997      C1998   1.411       .  A
C1998      C1999   1.515       .  S
C1999      F2003   1.385       .  S
C1999      F2004   1.383       .  S
C1999      F2005   1.383       .  S
C2002      F2006   1.383       .  S
C2002      F2007   1.383       .  S
C2002      F2008   1.385       .  S
C2009      C2010   1.403   1_554  A
C2009      C2014   1.411   1_565  A
C2009      H2016   1.083       .  S
C2010      C2011   1.416       .  A
C2011      C2012   1.409   1_565  A
C2011      C2018   1.517       .  S
C2012      C2013   1.402       .  A
C2012      H2017   1.083       .  S
C2013      C2014   1.419   1_556  A
C2014      C2015   1.518       .  S
C2015      F2019   1.385       .  S
C2015      F2020   1.383       .  S
C2015      F2021   1.383       .  S
C2018      F2022   1.380       .  S
C2018      F2023   1.382       .  S
C2018      F2024   1.384       .  S
C2025      C2026   1.397       .  A
C2025      C2030   1.403       .  A
C2025      H2032   1.084   1_556  S
C2026      C2027   1.417       .  A
C2027      C2028   1.411       .  A
C2027      C2034   1.519       .  S
C2028      C2029   1.409       .  A
C2028      H2033   1.082       .  S
C2029      C2030   1.428       .  A
C2030      C2031   1.519   1_556  S
C2031      F2035   1.385       .  S
C2031      F2036   1.382       .  S
C2031      F2037   1.381   1_554  S
C2034      F2038   1.383       .  S
C2034      F2039   1.382       .  S
C2034      F2040   1.385       .  S
C2041      C2042   1.403   1_554  A
C2041      C2046   1.408       .  A
C2041      H2048   1.084       .  S
C2042      C2043   1.414       .  A
C2043      C2044   1.410       .  A
C2043      C2050   1.514       .  S
C2044      C2045   1.403   1_556  A
C2044      H2049   1.083       .  S
C2045      C2046   1.420       .  A
C2046      C2047   1.519       .  S
C2047      F2051   1.386       .  S
C2047      F2052   1.382       .  S
C2047      F2053   1.383       .  S
C2050      F2054   1.382       .  S
C2050      F2055   1.383       .  S
C2050      F2056   1.385       .  S
C2057      C2058   1.405       .  A
C2057      C2062   1.400       .  A
C2057      H2064   1.083       .  S
C2058      C2059   1.426       .  A
C2059      C2060   1.407       .  A
C2059      C2066   1.521       .  S
C2060      C2061   1.400       .  A
C2060      H2065   1.083       .  S
C2061      C2062   1.412       .  A
C2062      C2063   1.515       .  S
C2063      F2067   1.385       .  S
C2063      F2068   1.383       .  S
C2063      F2069   1.381       .  S
C2066      F2070   1.383       .  S
C2066      F2071   1.382       .  S
C2066      F2072   1.385       .  S
C2073      C2074   1.404       .  A
C2073      C2078   1.411       .  A
C2073      H2080   1.084       .  S
C2074      C2075   1.415       .  A
C2075      C2076   1.412       .  A
C2075      C2082   1.515       .  S
C2076      C2077   1.405       .  A
C2076      H2081   1.083       .  S
C2077      C2078   1.418       .  A
C2078      C2079   1.518       .  S
C2079      F2083   1.385       .  S
C2079      F2084   1.383       .  S
C2079      F2085   1.382       .  S
C2082      F2086   1.383       .  S
C2082      F2087   1.383       .  S
C2082      F2088   1.384       .  S
C2089      C2090   1.410       .  A
C2089      C2094   1.407       .  A
C2089      H2096   1.082       .  S
C2090      C2091   1.423       .  A
C2091      C2092   1.411       .  A
C2091      C2098   1.518       .  S
C2092      C2093   1.405       .  A
C2092      H2097   1.083       .  S
C2093      C2094   1.414       .  A
C2094      C2095   1.518       .  S
C2095      F2099   1.385       .  S
C2095      F2100   1.384       .  S
C2095      F2101   1.383       .  S
C2098      F2102   1.384       .  S
C2098      F2103   1.383       .  S
C2098      F2104   1.385       .  S
C2105      C2106   1.401       .  A
C2105      C2110   1.410       .  A
C2105      H2112   1.083       .  S
C2106      C2107   1.415       .  A
C2107      C2108   1.408       .  A
C2107      C2114   1.519       .  S
C2108      C2109   1.409       .  A
C2108      H2113   1.083   1_655  S
C2109      C2110   1.426       .  A
C2110      C2111   1.520       .  S
C2111      F2115   1.385       .  S
C2111      F2116   1.383       .  S
C2111      F2117   1.382       .  S
C2114      F2118   1.384       .  S
C2114      F2119   1.381       .  S
C2114      F2120   1.383       .  S
C2121      C2122   1.406       .  A
C2121      C2126   1.416       .  A
C2121      H2128   1.083       .  S
C2122      C2123   1.415       .  A
C2123      C2124   1.408       .  A
C2123      C2130   1.514       .  S
C2124      C2125   1.404       .  A
C2124      H2129   1.084       .  S
C2125      C2126   1.417       .  A
C2126      C2127   1.516       .  S
C2127      F2131   1.384       .  S
C2127      F2132   1.383       .  S
C2127      F2133   1.383       .  S
C2130      F2134   1.384       .  S
C2130      F2135   1.382   1_455  S
C2130      F2136   1.384       .  S
C2137      C2138   1.410       .  A
C2137      C2142   1.407       .  A
C2137      H2144   1.084       .  S
C2138      C2139   1.412       .  A
C2139      C2140   1.407       .  A
C2139      C2146   1.517       .  S
C2140      C2141   1.408       .  A
C2140      H2145   1.084       .  S
C2141      C2142   1.410       .  A
C2142      C2143   1.517       .  S
C2143      F2147   1.383       .  S
C2143      F2148   1.383       .  S
C2143      F2149   1.383       .  S
C2146      F2150   1.385       .  S
C2146      F2151   1.383       .  S
C2146      F2152   1.382       .  S
C2153      C2154   1.403       .  A
C2153      C2158   1.409       .  A
C2153      H2160   1.084       .  S
C2154      C2155   1.414       .  A
C2155      C2156   1.411       .  A
C2155      C2162   1.515   1_556  S
C2156      C2157   1.404       .  A
C2156      H2161   1.083   1_556  S
C2157      C2158   1.417       .  A
C2158      C2159   1.519       .  S
C2159      F2163   1.384       .  S
C2159      F2164   1.384       .  S
C2159      F2165   1.382       .  S
C2162      F2166   1.383       .  S
C2162      F2167   1.382       .  S
C2162      F2168   1.384       .  S
C2169      C2170   1.407       .  A
C2169      C2174   1.408       .  A
C2169      H2176   1.083       .  S
C2170      C2171   1.417   1_556  A
C2171      C2172   1.406       .  A
C2171      C2178   1.517       .  S
C2172      C2173   1.402   1_554  A
C2172      H2177   1.084       .  S
C2173      C2174   1.414       .  A
C2174      C2175   1.519       .  S
C2175      F2179   1.384       .  S
C2175      F2180   1.383       .  S
C2175      F2181   1.384       .  S
C2178      F2182   1.380       .  S
C2178      F2183   1.384       .  S
C2178      F2184   1.385       .  S
C2185      C2186   1.408       .  A
C2185      C2190   1.399       .  A
C2185      H2192   1.083       .  S
C2186      C2187   1.412   1_556  A
C2187      C2188   1.409   1_554  A
C2187      C2194   1.518       .  S
C2188      C2189   1.414       .  A
C2188      H2193   1.082   1_556  S
C2189      C2190   1.420       .  A
C2190      C2191   1.524       .  S
C2191      F2195   1.385       .  S
C2191      F2196   1.382       .  S
C2191      F2197   1.382       .  S
C2194      F2198   1.383       .  S
C2194      F2199   1.383       .  S
C2194      F2200   1.385       .  S
C2201      C2202   1.403       .  A
C2201      C2206   1.412   1_655  A
C2201      H2208   1.081       .  S
C2202      C2203   1.413   1_556  A
C2203      C2204   1.398   1_655  A
C2203      C2210   1.516       .  S
C2204      C2205   1.401   1_554  A
C2204      H2209   1.085       .  S
C2205      C2206   1.417       .  A
C2206      C2207   1.516       .  S
C2207      F2211   1.385       .  S
C2207      F2212   1.383       .  S
C2207      F2213   1.383       .  S
C2210      F2214   1.383       .  S
C2210      F2215   1.382       .  S
C2210      F2216   1.383       .  S
C2217      C2218   1.404       .  A
C2217      C2222   1.403       .  A
C2217      H2224   1.083       .  S
C2218      C2219   1.420       .  A
C2219      C2220   1.405       .  A
C2219      C2226   1.520       .  S
C2220      C2221   1.402       .  A
C2220      H2225   1.083       .  S
C2221      C2222   1.417       .  A
C2222      C2223   1.519       .  S
C2223      F2227   1.385       .  S
C2223      F2228   1.384       .  S
C2223      F2229   1.382       .  S
C2226      F2230   1.384       .  S
C2226      F2231   1.382       .  S
C2226      F2232   1.385       .  S
C2233      C2234   1.411       .  A
C2233      C2238   1.408       .  A
C2233      H2240   1.082       .  S
C2234      C2235   1.412       .  A
C2235      C2236   1.407       .  A
C2235      C2242   1.518       .  S
C2236      C2237   1.407       .  A
C2236      H2241   1.082       .  S
C2237      C2238   1.410       .  A
C2238      C2239   1.518       .  S
C2239      F2243   1.383       .  S
C2239      F2244   1.385       .  S
C2239      F2245   1.383       .  S
C2242      F2246   1.384       .  S
C2242      F2247   1.383       .  S
C2242      F2248   1.384       .  S
C2249      C2250   1.404       .  A
C2249      C2254   1.408       .  A
C2249      H2256   1.084       .  S
C2250      C2251   1.415       .  A
C2251      C2252   1.408       .  A
C2251      C2258   1.515       .  S
C2252      C2253   1.403       .  A
C2252      H2257   1.084       .  S
C2253      C2254   1.417       .  A
C2254      C2255   1.516       .  S
C2255      F2259   1.385       .  S
C2255      F2260   1.383       .  S
C2255      F2261   1.382       .  S
C2258      F2262   1.383       .  S
C2258      F2263   1.383       .  S
C2258      F2264   1.383       .  S
C2265      C2266   1.401       .  A
C2265      C2270   1.403   1_545  A
C2265      H2272   1.085       .  S
C2266      C2267   1.419       .  A
C2267      C2268   1.415   1_545  A
C2267      C2274   1.517       .  S
C2268      C2269   1.405       .  A
C2268      H2273   1.083       .  S
C2269      C2270   1.418       .  A
C2270      C2271   1.518       .  S
C2271      F2275   1.383       .  S
C2271      F2276   1.383       .  S
C2271      F2277   1.384       .  S
C2274      F2278   1.383       .  S
C2274      F2279   1.383       .  S
C2274      F2280   1.385       .  S
C2281      C2282   1.408       .  A
C2281      C2286   1.406   1_545  A
C2281      H2288   1.083   1_545  S
C2282      C2283   1.414       .  A
C2283      C2284   1.409       .  A
C2283      C2290   1.517       .  S
C2284      C2285   1.409       .  A
C2284      H2289   1.084       .  S
C2285      C2286   1.411   1_545  A
C2286      C2287   1.518       .  S
C2287      F2291   1.385       .  S
C2287      F2292   1.383       .  S
C2287      F2293   1.383       .  S
C2290      F2294   1.383       .  S
C2290      F2295   1.383       .  S
C2290      F2296   1.385       .  S
C2297      C2298   1.403       .  A
C2297      C2302   1.408       .  A
C2297      H2304   1.084       .  S
C2298      C2299   1.416       .  A
C2299      C2300   1.411       .  A
C2299      C2306   1.516       .  S
C2300      C2301   1.403       .  A
C2300      H2305   1.083       .  S
C2301      C2302   1.415       .  A
C2302      C2303   1.518       .  S
C2303      F2307   1.385       .  S
C2303      F2308   1.383       .  S
C2303      F2309   1.383       .  S
C2306      F2310   1.382       .  S
C2306      F2311   1.383       .  S
C2306      F2312   1.385       .  S
C2313      C2314   1.404       .  A
C2313      C2318   1.409       .  A
C2313      H2320   1.085       .  S
C2314      C2315   1.418       .  A
C2315      C2316   1.413       .  A
C2315      C2322   1.515       .  S
C2316      C2317   1.402       .  A
C2316      H2321   1.083       .  S
C2317      C2318   1.418       .  A
C2318      C2319   1.517   1_545  S
C2319      F2323   1.384   1_565  S
C2319      F2324   1.384       .  S
C2319      F2325   1.383       .  S
C2322      F2326   1.382       .  S
C2322      F2327   1.383       .  S
C2322      F2328   1.385       .  S
C2329      C2330   1.397       .  A
C2329      C2334   1.402       .  A
C2329      H2336   1.084       .  S
C2330      C2331   1.412       .  A
C2331      C2332   1.410       .  A
C2331      C2338   1.516       .  S
C2332      C2333   1.410       .  A
C2332      H2337   1.083       .  S
C2333      C2334   1.427       .  A
C2334      C2335   1.523       .  S
C2335      F2339   1.383       .  S
C2335      F2340   1.383       .  S
C2335      F2341   1.385       .  S
C2338      F2342   1.383       .  S
C2338      F2343   1.383       .  S
C2338      F2344   1.385       .  S
C2345      C2346   1.412       .  A
C2345      C2350   1.412       .  A
C2345      H2352   1.084       .  S
C2346      C2347   1.411       .  A
C2347      C2348   1.410       .  A
C2347      C2354   1.516       .  S
C2348      C2349   1.411       .  A
C2348      H2353   1.082       .  S
C2349      C2350   1.413       .  A
C2350      C2351   1.517       .  S
C2351      F2355   1.384       .  S
C2351      F2356   1.383       .  S
C2351      F2357   1.383       .  S
C2354      F2358   1.382       .  S
C2354      F2359   1.383       .  S
C2354      F2360   1.385       .  S
C2361      C2362   1.404       .  A
C2361      C2366   1.412   1_655  A
C2361      H2368   1.083       .  S
C2362      C2363   1.417       .  A
C2363      C2364   1.406   1_655  A
C2363      C2370   1.517       .  S
C2364      C2365   1.402       .  A
C2364      H2369   1.085       .  S
C2365      C2366   1.417       .  A
C2366      C2367   1.517       .  S
C2367      F2371   1.384       .  S
C2367      F2372   1.383       .  S
C2367      F2373   1.383       .  S
C2370      F2374   1.382       .  S
C2370      F2375   1.381       .  S
C2370      F2376   1.384       .  S
C2377      C2378   1.408       .  A
C2377      C2382   1.412       .  A
C2377      H2384   1.083       .  S
C2378      C2379   1.419       .  A
C2379      C2380   1.403       .  A
C2379      C2386   1.509       .  S
C2380      C2381   1.397       .  A
C2380      H2385   1.084       .  S
C2381      C2382   1.417       .  A
C2382      C2383   1.518       .  S
C2383      F2387   1.384       .  S
C2383      F2388   1.384       .  S
C2383      F2389   1.383       .  S
C2386      F2390   1.380       .  S
C2386      F2391   1.384       .  S
C2386      F2392   1.385       .  S
C2393      C2394   1.404       .  A
C2393      C2398   1.412       .  A
C2393      H2400   1.083       .  S
C2394      C2395   1.414       .  A
C2395      C2396   1.410       .  A
C2395      C2402   1.517       .  S
C2396      C2397   1.405       .  A
C2396      H2401   1.083       .  S
C2397      C2398   1.414       .  A
C2398      C2399   1.515       .  S
C2399      F2403   1.381       .  S
C2399      F2404   1.383       .  S
C2399      F2405   1.384       .  S
C2402      F2406   1.382       .  S
C2402      F2407   1.384       .  S
C2402      F2408   1.384       .  S
C2409      C2410   1.413       .  A
C2409      C2414   1.409       .  A
C2409      H2416   1.083       .  S
C2410      C2411   1.413       .  A
C2411      C2412   1.413       .  A
C2411      C2418   1.515       .  S
C2412      C2413   1.411       .  A
C2412      H2417   1.084       .  S
C2413      C2414   1.410       .  A
C2414      C2415   1.516       .  S
C2415      F2419   1.385       .  S
C2415      F2420   1.383       .  S
C2415      F2421   1.383       .  S
C2418      F2422   1.383       .  S
C2418      F2423   1.383       .  S
C2418      F2424   1.384       .  S
C2425      C2426   1.405       .  A
C2425      C2430   1.415       .  A
C2425      H2432   1.083       .  S
C2426      C2427   1.417       .  A
C2427      C2428   1.400   1_655  A
C2427      C2434   1.516       .  S
C2428      C2429   1.399   1_455  A
C2428      H2433   1.085       .  S
C2429      C2430   1.420       .  A
C2430      C2431   1.517       .  S
C2431      F2435   1.385       .  S
C2431      F2436   1.383       .  S
C2431      F2437   1.383       .  S
C2434      F2438   1.383   1_655  S
C2434      F2439   1.382       .  S
C2434      F2440   1.383       .  S
C2441      C2442   1.400       .  A
C2441      C2446   1.403       .  A
C2441      H2448   1.085       .  S
C2442      C2443   1.415       .  A
C2443      C2444   1.407       .  A
C2443      C2450   1.515       .  S
C2444      C2445   1.402       .  A
C2444      H2449   1.084       .  S
C2445      C2446   1.416       .  A
C2446      C2447   1.514       .  S
C2447      F2451   1.384       .  S
C2447      F2452   1.382       .  S
C2447      F2453   1.383       .  S
C2450      F2454   1.382       .  S
C2450      F2455   1.384       .  S
C2450      F2456   1.385       .  S
C2457      C2458   1.403       .  A
C2457      C2462   1.406       .  A
C2457      H2464   1.083       .  S
C2458      C2459   1.420       .  A
C2459      C2460   1.408       .  A
C2459      C2466   1.519       .  S
C2460      C2461   1.404       .  A
C2460      H2465   1.083       .  S
C2461      C2462   1.422       .  A
C2462      C2463   1.521       .  S
C2463      F2467   1.385       .  S
C2463      F2468   1.384       .  S
C2463      F2469   1.383       .  S
C2466      F2470   1.384       .  S
C2466      F2471   1.382       .  S
C2466      F2472   1.385       .  S
C2473      C2474   1.402       .  A
C2473      C2478   1.409       .  A
C2473      H2480   1.081       .  S
C2474      C2475   1.413       .  A
C2475      C2476   1.404       .  A
C2475      C2482   1.521       .  S
C2476      C2477   1.411       .  A
C2476      H2481   1.083   1_565  S
C2477      C2478   1.425       .  A
C2478      C2479   1.521       .  S
C2479      F2483   1.385       .  S
C2479      F2484   1.383       .  S
C2479      F2485   1.382       .  S
C2482      F2486   1.384       .  S
C2482      F2487   1.383       .  S
C2482      F2488   1.384   1_565  S
C2489      C2490   1.407       .  A
C2489      C2494   1.408   1_455  A
C2489      H2496   1.084   1_455  S
C2490      C2491   1.411       .  A
C2491      C2492   1.410       .  A
C2491      C2498   1.516       .  S
C2492      C2493   1.411       .  A
C2492      H2497   1.084       .  S
C2493      C2494   1.415   1_455  A
C2494      C2495   1.517       .  S
C2495      F2499   1.385       .  S
C2495      F2500   1.383       .  S
C2495      F2501   1.381       .  S
C2498      F2502   1.383       .  S
C2498      F2503   1.384       .  S
C2498      F2504   1.384       .  S
C2505      C2506   1.401       .  A
C2505      C2510   1.407       .  A
C2505      H2512   1.084       .  S
C2506      C2507   1.414       .  A
C2507      C2508   1.411       .  A
C2507      C2514   1.517       .  S
C2508      C2509   1.404       .  A
C2508      H2513   1.083       .  S
C2509      C2510   1.417       .  A
C2510      C2511   1.518       .  S
C2511      F2515   1.385       .  S
C2511      F2516   1.383       .  S
C2511      F2517   1.381   1_545  S
C2514      F2518   1.383       .  S
C2514      F2519   1.380       .  S
C2514      F2520   1.385       .  S
C2521      C2522   1.403       .  A
C2521      C2526   1.408       .  A
C2521      H2528   1.084       .  S
C2522      C2523   1.416   1_655  A
C2523      C2524   1.404       .  A
C2523      C2530   1.516       .  S
C2524      C2525   1.401       .  A
C2524      H2529   1.085       .  S
C2525      C2526   1.414   1_455  A
C2526      C2527   1.516       .  S
C2527      F2531   1.384       .  S
C2527      F2532   1.382       .  S
C2527      F2533   1.383       .  S
C2530      F2534   1.383       .  S
C2530      F2535   1.383       .  S
C2530      F2536   1.384       .  S
C2537      C2538   1.414   1_565  A
C2537      C2542   1.410       .  A
C2537      H2544   1.083       .  S
C2538      C2539   1.415   1_545  A
C2539      C2540   1.398       .  A
C2539      C2546   1.520   1_565  S
C2540      C2541   1.407       .  A
C2540      H2545   1.083       .  S
C2541      C2542   1.410       .  A
C2542      C2543   1.516       .  S
C2543      F2547   1.384       .  S
C2543      F2548   1.383       .  S
C2543      F2549   1.383       .  S
C2546      F2550   1.383       .  S
C2546      F2551   1.382       .  S
C2546      F2552   1.385   1_545  S
C2553      C2554   1.404       .  A
C2553      C2558   1.406       .  A
C2553      H2560   1.083       .  S
C2554      C2555   1.419       .  A
C2555      C2556   1.407       .  A
C2555      C2562   1.519       .  S
C2556      C2557   1.402       .  A
C2556      H2561   1.084       .  S
C2557      C2558   1.415       .  A
C2558      C2559   1.518       .  S
C2559      F2563   1.383       .  S
C2559      F2564   1.382       .  S
C2559      F2565   1.385       .  S
C2562      F2566   1.381   1_455  S
C2562      F2567   1.384       .  S
C2562      F2568   1.384       .  S
C2569      C2570   1.394       .  A
C2569      C2574   1.404       .  A
C2569      H2576   1.084       .  S
C2570      C2571   1.421       .  A
C2571      C2572   1.407       .  A
C2571      C2578   1.509       .  S
C2572      C2573   1.399       .  A
C2572      H2577   1.084       .  S
C2573      C2574   1.426       .  A
C2574      C2575   1.512       .  S
C2575      F2579   1.385       .  S
C2575      F2580   1.380       .  S
C2575      F2581   1.378       .  S
C2578      F2582   1.383       .  S
C2578      F2583   1.381       .  S
C2578      F2584   1.381       .  S
C2585      C2586   1.401       .  A
C2585      C2590   1.404       .  A
C2585      H2592   1.085       .  S
C2586      C2587   1.416       .  A
C2587      C2588   1.416       .  A
C2587      C2594   1.515       .  S
C2588      C2589   1.407       .  A
C2588      H2593   1.083       .  S
C2589      C2590   1.420       .  A
C2590      C2591   1.517       .  S
C2591      F2595   1.384       .  S
C2591      F2596   1.383   1_545  S
C2591      F2597   1.383       .  S
C2594      F2598   1.383       .  S
C2594      F2599   1.383       .  S
C2594      F2600   1.385       .  S
C2601      C2602   1.405       .  A
C2601      C2606   1.409       .  A
C2601      H2608   1.083       .  S
C2602      C2603   1.415       .  A
C2603      C2604   1.406       .  A
C2603      C2610   1.520       .  S
C2604      C2605   1.410       .  A
C2604      H2609   1.083       .  S
C2605      C2606   1.424       .  A
C2606      C2607   1.522       .  S
C2607      F2611   1.385       .  S
C2607      F2612   1.383       .  S
C2607      F2613   1.382       .  S
C2610      F2614   1.384       .  S
C2610      F2615   1.383       .  S
C2610      F2616   1.384       .  S
C2617      C2618   1.403       .  A
C2617      C2622   1.410       .  A
C2617      H2624   1.083       .  S
C2618      C2619   1.419       .  A
C2619      C2620   1.405       .  A
C2619      C2626   1.516       .  S
C2620      C2621   1.402       .  A
C2620      H2625   1.085       .  S
C2621      C2622   1.422       .  A
C2622      C2623   1.520       .  S
C2623      F2627   1.385       .  S
C2623      F2628   1.383       .  S
C2623      F2629   1.380       .  S
C2626      F2630   1.381       .  S
C2626      F2631   1.381       .  S
C2626      F2632   1.384       .  S
C2633      C2634   1.401       .  A
C2633      C2638   1.402       .  A
C2633      H2640   1.086       .  S
C2634      C2635   1.415       .  A
C2635      C2636   1.415       .  A
C2635      C2642   1.515       .  S
C2636      C2637   1.407       .  A
C2636      H2641   1.083       .  S
C2637      C2638   1.419       .  A
C2638      C2639   1.520       .  S
C2639      F2643   1.383       .  S
C2639      F2644   1.380       .  S
C2639      F2645   1.381   1_455  S
C2642      F2646   1.382       .  S
C2642      F2647   1.383       .  S
C2642      F2648   1.384       .  S
C2649      C2650   1.400       .  A
C2649      C2654   1.401       .  A
C2649      H2656   1.083       .  S
C2650      C2651   1.414       .  A
C2651      C2652   1.407       .  A
C2651      C2658   1.514       .  S
C2652      C2653   1.405       .  A
C2652      H2657   1.083       .  S
C2653      C2654   1.422       .  A
C2654      C2655   1.523       .  S
C2655      F2659   1.385       .  S
C2655      F2660   1.383       .  S
C2655      F2661   1.381       .  S
C2658      F2662   1.382       .  S
C2658      F2663   1.384       .  S
C2658      F2664   1.384       .  S
