geometry optimzed in LAMMPS
_audit_creation_date              2020-11-30 
_audit_creation_method            'lammps2cif' 
_symmetry_space_group_name_H-M    'P1' 
_symmetry_Int_Tables_number       1 
_symmetry_cell_setting            triclinic 
loop_ 
_symmetry_equiv_pos_as_xyz 
  x,y,z 
_cell_length_a                    32.12601539231037 
_cell_length_b                    32.04463106096312 
_cell_length_c                    43.86201105035675 
_cell_angle_alpha                 91.00951503638859 
_cell_angle_beta                  90.71210028393818 
_cell_angle_gamma                 120.5988446214163 
loop_ 
_atom_site_label 
_atom_site_type_symbol 
_atom_site_fract_x 
_atom_site_fract_y 
_atom_site_fract_z 
_atom_site_charge 
O1          O  0.18067015  0.79953220  0.39255687    -0.82210
C2          C  0.19023179  0.76590853  0.27637399     0.97140
O3          O  0.21847473  0.79613324  0.29662724    -0.71330
O4          O  0.24069295  0.84698999  0.34890406    -0.74920
Al5        Al  0.22242312  0.78154035  0.33687850     1.48980
C6          C  0.21862501  0.86963081  0.34507378     0.92400
O7          O  0.08490140  0.77461162  0.32747556    -0.81140
O8          O  0.08679165  0.66801383  0.35885148    -0.74700
Al9        Al  0.13469986  0.78573604  0.35829415     1.90120
O10         O  0.07338144  0.70725936  0.30771506    -0.73770
O11         O  0.15714997  0.66726609  0.33114095    -0.73620
O12         O  0.15365022  0.72426460  0.28287240    -0.79280
O13         O  0.22769122  0.72624933  0.32229683    -0.77480
O14         O  0.15854681  0.75408427  0.33894896    -1.13620
O15         O  0.22556230  0.76751262  0.37810684    -0.72810
C16         C  0.20955805  0.78384371  0.39871267     0.97910
C17         C  0.06177051  0.73858321  0.30919314     0.94300
Al18       Al  0.12098976  0.69675333  0.32159682     1.55560
O19         O  0.17411370  0.84584809  0.33926395    -0.77430
C20         C  0.19813749  0.68150610  0.32129572     0.98470
C21         C  0.07787680  0.68851349  0.38084683     0.93350
O22         O  0.09189856  0.73269601  0.38018829    -0.82750
O23         O  0.80159449  0.62431595  0.30496795    -0.82210
C24         C  0.76006340  0.58538249  0.18498899     0.97140
O25         O  0.79299215  0.59074981  0.20392772    -0.71330
O26         O  0.84902701  0.61997860  0.25588128    -0.74920
Al27       Al  0.78247682  0.57140788  0.24422178     1.48980
C28         C  0.87075273  0.66577198  0.25798392     0.92400
O29         O  0.77546759  0.70286170  0.25039881    -0.81140
O30         O  0.67038997  0.59869570  0.27027699    -0.74700
Al31       Al  0.78709565  0.65997588  0.27470052     1.90120
O32         O  0.71584939  0.65292981  0.21986795    -0.73770
O33         O  0.66994510  0.52513627  0.24416581    -0.73620
O34         O  0.71995706  0.58002746  0.19397964    -0.79280
O35         O  0.72610914  0.51136156  0.23044415    -0.77480
O36         O  0.75581555  0.60793220  0.25049776    -1.13620
O37         O  0.77033563  0.54996497  0.28487834    -0.72810
C38         C  0.78437346  0.57877251  0.30789556     0.97910
C39         C  0.74552726  0.69551417  0.22905170     0.94300
Al40       Al  0.69877406  0.59058882  0.23333478     1.55560
O41         O  0.84652397  0.68591931  0.25501717    -0.77430
C42         C  0.68221109  0.49590620  0.23470236     0.98470
C43         C  0.69101031  0.62066160  0.29514786     0.93350
O44         O  0.73557245  0.64411307  0.29743939    -0.82750
O45         O  0.61303742  0.84139465  0.23148392    -0.82210
C46         C  0.59786142  0.81698367  0.10796761     0.97140
O47         O  0.60403129  0.79561879  0.12995461    -0.71330
O48         O  0.62839304  0.78726458  0.18661329    -0.74920
Al49       Al  0.57635011  0.79237468  0.16866579     1.48980
C50         C  0.67253609  0.81711878  0.19267588     0.92400
O51         O  0.69134496  0.94584639  0.17824168    -0.81140
O52         O  0.59691463  0.93844485  0.17192713    -0.74700
Al53       Al  0.64798013  0.88913145  0.20208733     1.90120
O54         O  0.65659509  0.92676202  0.13290437    -0.73770
O55         O  0.52482691  0.85346927  0.15209697    -0.73620
O56         O  0.58527965  0.84775427  0.11269574    -0.79280
O57         O  0.51644423  0.78130456  0.14893307    -0.77480
O58         O  0.60558420  0.85688555  0.17195040    -1.13620
O59         O  0.54695449  0.78442506  0.20741528    -0.72810
C60         C  0.57053808  0.80514607  0.23185361     0.97910
C61         C  0.69143230  0.95512250  0.15018406     0.94300
Al62       Al  0.59183391  0.88875922  0.14480807     1.55560
O63         O  0.68813974  0.86221091  0.19306404    -0.77430
C64         C  0.49934787  0.80886038  0.14530559     0.98470
C65         C  0.60179462  0.94377549  0.20047518     0.93350
O66         O  0.61248300  0.91778544  0.21590557    -0.82750
O67         O  0.61549192  0.77841201  0.36007239    -0.82210
C68         C  0.57900886  0.76742250  0.48106357     0.97140
O69         O  0.58748242  0.79742890  0.46021855    -0.71330
O70         O  0.61987193  0.84020393  0.40693722    -0.74920
Al71       Al  0.56663256  0.77857671  0.41915516     1.48980
C72         C  0.66495121  0.85783772  0.40468759     0.92400
O73         O  0.68512199  0.74886563  0.41990783    -0.81140
O74         O  0.59152315  0.65669977  0.41442603    -0.74700
Al75       Al  0.64579119  0.76343067  0.39247755     1.90120
O76         O  0.64194318  0.72165323  0.46095858    -0.73770
O77         O  0.51545097  0.66346795  0.42607241    -0.73620
O78         O  0.56447170  0.72349418  0.47488865    -0.79280
O79         O  0.50494899  0.72526364  0.43210308    -0.77480
O80         O  0.59795298  0.74622647  0.41797159    -1.13620
O81         O  0.54442836  0.76112162  0.37764080    -0.72810
C82         C  0.57229683  0.76833452  0.35557409     0.97910
C83         C  0.68025727  0.73354906  0.44694548     0.94300
Al84       Al  0.57961949  0.69557150  0.44197656     1.55560
O85         O  0.68229401  0.83021201  0.40637083    -0.77430
C86         C  0.48803410  0.67994570  0.43142479     0.98470
C87         C  0.60161139  0.66192147  0.38672262     0.93350
O88         O  0.61479297  0.70141137  0.37421937    -0.82750
O89         O  0.23893299  0.40684776  0.07121174    -0.82210
C90         C  0.24150211  0.42983168  0.44851728     0.97140
O91         O  0.21429329  0.42562532  0.47038131    -0.71330
O92         O  0.17805310  0.39964496  0.52505525    -0.74920
Al93       Al  0.23694444  0.45104981  0.51076309     1.48980
C94         C  0.15861007  0.35425035  0.02700405     0.92400
O95         O  0.26802028  0.33152173  0.51367508    -0.81140
O96         O  0.35917096  0.42903909  0.01603766    -0.74700
Al97       Al  0.25347288  0.37340401  0.03983078     1.90120
O98         O  0.29277804  0.37351558  0.47245427    -0.73770
O99         O  0.35013400  0.50198825  0.50026619    -0.73620
O100        O  0.28569309  0.44433255  0.45349544    -0.79280
O101        O  0.28815505  0.51139357  0.49438579    -0.77480
O102        O  0.26950904  0.41984536  0.01289054    -1.13620
O103        O  0.25620677  0.47715259  0.05177165    -0.72810
C104        C  0.24711282  0.44992299  0.07451933     0.97910
C105        C  0.28330386  0.33622670  0.48659846     0.94300
Al106      Al  0.31800218  0.43614384  0.48785001     1.55560
O107        O  0.18538806  0.33570294  0.02634078    -0.77430
C108        C  0.33301480  0.52778978  0.49252680     0.98470
C109        C  0.35590219  0.41907247  0.04382014     0.93350
O110        O  0.31692162  0.40494754  0.05756284    -0.82750
O111        O  0.85809297  0.24218575  0.15082722    -0.82210
C112        C  0.81585782  0.23411151  0.03124689     0.97140
O113        O  0.78902033  0.21343444  0.05389431    -0.71330
O114        O  0.78576113  0.17764892  0.10828488    -0.74920
Al115      Al  0.79609341  0.23693816  0.09544462     1.48980
C116        C  0.80717116  0.15461156  0.11041449     0.92400
O117        O  0.93872795  0.24967367  0.08409771    -0.81140
O118        O  0.93058657  0.36142127  0.09905036    -0.74700
Al119      Al  0.89361720  0.24653765  0.11512716     1.90120
O120        O  0.94069745  0.30627187  0.05721267    -0.73770
O121        O  0.85313387  0.34444224  0.07169374    -0.73620
O122        O  0.85373712  0.27584045  0.03405578    -0.79280
O123        O  0.78261605  0.28545948  0.08230242    -0.77480
O124        O  0.86049807  0.26690415  0.09272620    -1.13620
O125        O  0.80090262  0.25823216  0.13817677    -0.72810
C126        C  0.82640953  0.25253242  0.15856185     0.97910
C127        C  0.95954507  0.28216549  0.06452257     0.94300
Al128      Al  0.89087464  0.31657009  0.06785353     1.55560
O129        O  0.85224231  0.17692919  0.10608978    -0.77430
C130        C  0.80900461  0.32736612  0.07314779     0.98470
C131        C  0.95039708  0.35291527  0.12104215     0.93350
O132        O  0.93837012  0.31014241  0.12816112    -0.82750
O133        O  0.39494851  0.18015028  0.47782519    -0.82210
C134        C  0.42768897  0.18916581  0.36085587     0.97140
O135        O  0.43068511  0.22008002  0.38098636    -0.71330
O136        O  0.40851261  0.24553393  0.43558821    -0.74920
Al137      Al  0.45258770  0.22546126  0.42157962     1.48980
C138        C  0.36324372  0.22474834  0.43362506     0.92400
O139        O  0.31842866  0.09098741  0.40969901    -0.81140
O140        O  0.42823477  0.08955458  0.44508819    -0.74700
Al141      Al  0.35914361  0.13790145  0.44223512     1.90120
O142        O  0.37289567  0.07495721  0.39462906    -0.73770
O143        O  0.50044403  0.16155621  0.41641966    -0.73620
O144        O  0.43520290  0.15444304  0.36788372    -0.79280
O145        O  0.51171959  0.23114759  0.40526976    -0.77480
O146        O  0.41464909  0.16159148  0.42367774    -1.13620
O147        O  0.47201675  0.22762000  0.46344785    -0.72810
C148        C  0.44040043  0.20826167  0.48429092     0.97910
C149        C  0.32981583  0.06435665  0.39446546     0.94300
Al150      Al  0.43305127  0.12357326  0.40715879     1.55560
O151        O  0.34018478  0.18070384  0.42607283    -0.77430
C152        C  0.52731272  0.20239389  0.40594704     0.98470
C153        C  0.39444298  0.07664071  0.46418485     0.93350
O154        O  0.36531658  0.09116033  0.46159211    -0.82750
O155        O  0.80451056  0.18169729  0.28811084    -0.82210
C156        C  0.76551159  0.16992396  0.40648058     0.97140
O157        O  0.79861701  0.20118039  0.38962366    -0.71330
O158        O  0.85519500  0.23277276  0.33888229    -0.74920
Al159      Al  0.78978949  0.21565179  0.34948311     1.48980
C160        C  0.87467947  0.20744114  0.33604150     0.92400
O161        O  0.77517231  0.07472724  0.34041643    -0.81140
O162        O  0.67117772  0.08575524  0.31477651    -0.74700
Al163      Al  0.78811618  0.12988701  0.31650815     1.90120
O164        O  0.70991053  0.06141919  0.36312191    -0.73770
O165        O  0.67540237  0.15549357  0.34927093    -0.73620
O166        O  0.72435320  0.13732386  0.39545853    -0.79280
O167        O  0.73744576  0.22315240  0.36396021    -0.77480
O168        O  0.75883598  0.15222830  0.34013777    -1.13620
O169        O  0.77980432  0.22957246  0.30846744    -0.72810
C170        C  0.79354004  0.21476941  0.28563079     0.97910
C171        C  0.74052729  0.04918118  0.35753135     0.94300
Al172      Al  0.70028052  0.11334519  0.35442694     1.55560
O173        O  0.84861036  0.16248550  0.33762873    -0.77430
C174        C  0.69247126  0.19668419  0.36168279     0.98470
C175        C  0.69046983  0.07973921  0.29135363     0.93350
O176        O  0.73441583  0.09338728  0.29174105    -0.82750
O177        O  0.22259636  0.83054971  0.03309558    -0.82210
C178        C  0.24121120  0.81282047  0.15141052     0.97140
O179        O  0.21198276  0.78374717  0.13080322    -0.71330
O180        O  0.16574206  0.76343798  0.07581911    -0.74920
Al181      Al  0.22912268  0.78031913  0.08979894     1.48980
C182        C  0.14258548  0.78516724  0.07591534     0.92400
O183        O  0.23725770  0.91697247  0.09972349    -0.81140
O184        O  0.34958059  0.92002026  0.07571915    -0.74700
Al185      Al  0.23087039  0.87136920  0.06786225     1.90120
O186        O  0.30148322  0.92704058  0.12377685    -0.73770
O187        O  0.34261301  0.84313101  0.09736301    -0.73620
O188        O  0.28451819  0.84565370  0.14540172    -0.79280
O189        O  0.28210299  0.77217136  0.10488781    -0.77480
O190        O  0.25853206  0.84476582  0.08873793    -1.13620
O191        O  0.24525074  0.77819642  0.04794882    -0.72810
C192        C  0.23513729  0.79939462  0.02705530     0.97910
C193        C  0.27046660  0.93901538  0.11983218     0.94300
Al194      Al  0.31449343  0.88033630  0.10894806     1.55560
O195        O  0.16564570  0.83018209  0.08103926    -0.77430
C196        C  0.32709422  0.80024548  0.10416012     0.98470
C197        C  0.33330549  0.93412649  0.05457844     0.93350
O198        O  0.28857131  0.91701139  0.05063883    -0.82750
O199        O  0.17984121  0.38714465  0.20149703    -0.82210
C200        C  0.18444447  0.41853899  0.32199803     0.97140
O201        O  0.21221999  0.41388605  0.30322151    -0.71330
O202        O  0.23823276  0.38964004  0.24823984    -0.74920
Al203      Al  0.22147930  0.43676275  0.26303359     1.48980
C204        C  0.21318614  0.34419697  0.24588510     0.92400
O205        O  0.08181237  0.30683621  0.26053214    -0.81140
O206        O  0.08418073  0.41668202  0.23698638    -0.74700
Al207      Al  0.13270088  0.34913976  0.23320944     1.90120
O208        O  0.07225610  0.36016961  0.28629810    -0.73770
O209        O  0.16028577  0.48691675  0.26491001    -0.73620
O210        O  0.15167405  0.42711524  0.31286737    -0.79280
O211        O  0.22869965  0.49647011  0.27955991    -0.77480
O212        O  0.15716286  0.40193058  0.25671241    -1.13620
O213        O  0.22973428  0.46040846  0.22273733    -0.72810
C214        C  0.21102341  0.43269798  0.19920710     0.97910
C215        C  0.05946579  0.31686880  0.28024785     0.94300
Al216      Al  0.12018524  0.42125893  0.27394015     1.55560
O217        O  0.16924040  0.32427227  0.25113228    -0.77430
C218        C  0.20134417  0.51338006  0.27702856     0.98470
C219        C  0.07549656  0.38980981  0.21342932     0.93350
O220        O  0.09153900  0.36186629  0.21183672    -0.82750
O221        O  0.83436514  0.60317115  0.43850740    -0.82210
C222        C  0.80741239  0.57033578  0.05986085     0.97140
O223        O  0.78402047  0.57469309  0.03777973    -0.71330
O224        O  0.77308818  0.60243683  0.98323572    -0.74920
Al225      Al  0.78391834  0.55317652  0.99687123     1.48980
C226        C  0.79662163  0.64761354  0.98095277     0.92400
O227        O  0.93159243  0.68019526  0.00073362    -0.81140
O228        O  0.93050305  0.58061114  0.49411016    -0.74700
Al229      Al  0.87841529  0.63758518  0.47209346     1.90120
O230        O  0.91927256  0.63221522  0.03858504    -0.73770
O231        O  0.84799919  0.50530139  0.00740953    -0.73620
O232        O  0.83914634  0.55891024  0.05502689    -0.79280
O233        O  0.77562117  0.49329124  0.01197133    -0.77480
O234        O  0.84844913  0.58773214  0.99688470    -1.13620
O235        O  0.78106320  0.53049731  0.45519055    -0.72810
C236        C  0.80257535  0.55882833  0.43335584     0.97910
C237        C  0.94468514  0.67238609  0.02641834     0.94300
Al238      Al  0.88112370  0.57049419  0.02151954     1.55560
O239        O  0.84234123  0.66946451  0.48419968    -0.77430
C240        C  0.80439592  0.47770377  0.01330777     0.98470
C241        C  0.93988619  0.59716105  0.46778820     0.93350
O242        O  0.91643328  0.61417236  0.45535611    -0.82750
O243        O  0.38809935  0.20393020  0.11445710    -0.82210
C244        C  0.41113973  0.23437763  0.23552213     0.97140
O245        O  0.41132441  0.20513857  0.21567242    -0.71330
O246        O  0.38775819  0.15518347  0.16276992    -0.74920
Al247      Al  0.43607505  0.22074184  0.17634780     1.48980
C248        C  0.34206012  0.13412964  0.16095751     0.92400
O249        O  0.30657384  0.23296733  0.16465995    -0.81140
O250        O  0.41249491  0.33510124  0.15262523    -0.74700
Al251      Al  0.35141490  0.21984358  0.14283909     1.90120
O252        O  0.35327161  0.28496731  0.19999278    -0.73770
O253        O  0.48261725  0.33485962  0.18223111    -0.73620
O254        O  0.41963009  0.27636900  0.22802557    -0.79280
O255        O  0.49513363  0.27705055  0.19383395    -0.77480
O256        O  0.40068994  0.24830754  0.16946556    -1.13620
O257        O  0.46139407  0.23576650  0.13598007    -0.72810
C258        C  0.43350722  0.22050267  0.11241162     0.97910
C259        C  0.31250493  0.26006480  0.18758945     0.94300
Al260      Al  0.41562258  0.30300249  0.18899477     1.55560
O261        O  0.32229725  0.15921994  0.16196006    -0.77430
C262        C  0.50981217  0.32177040  0.19354309     0.98470
C263        C  0.39589171  0.31852557  0.12589170     0.93350
O264        O  0.37266469  0.27406218  0.12054742    -0.82750
C265        C  0.23826016  0.31922729  0.19946337    -0.06190
C266        C  0.23262958  0.31577748  0.23116828    -0.00270
C267        C  0.24416591  0.28501291  0.24718171    -0.08840
C268        C  0.26500485  0.26173005  0.23116147    -0.06220
C269        C  0.27406318  0.26806793  0.19972027    -0.00280
C270        C  0.25868397  0.29581958  0.18337549    -0.08750
C271        C  0.26712243  0.30377743  0.14948209     0.61630
H272        H  0.22803927  0.34201485  0.18745331     0.12320
H273        H  0.27700970  0.24057367  0.24342361     0.12340
C274        C  0.23631131  0.27875105  0.28116329     0.61860
F275        F  0.24625108  0.32879281  0.13756935    -0.23300
F276        F  0.24732955  0.25956062  0.13398586    -0.20630
F277        F  0.31614573  0.33044106  0.14452002    -0.20310
F278        F  0.18775520  0.25945309  0.28691604    -0.20360
F279        F  0.26269016  0.32331008  0.29620968    -0.20680
F280        F  0.25061933  0.24796108  0.29274755    -0.23360
C281        C  0.06930184  0.78198017  0.05185915    -0.06190
C282        C  0.08954190  0.75790062  0.06743788    -0.00270
C283        C  0.05982343  0.70719034  0.07168059    -0.08840
C284        C  0.01284293  0.68268394  0.05882381    -0.06220
C285        C  0.99327851  0.70574522  0.04163916    -0.00280
C286        C  0.02169163  0.75672050  0.03871884    -0.08750
C287        C  0.00187878  0.78432786  0.02222547     0.61630
H288        H  0.09193116  0.82061495  0.04875021     0.12320
H289        H  0.99167965  0.64373542  0.06091123     0.12340
C290        C  0.07702186  0.67748501  0.08882537     0.61860
F291        F  0.03272032  0.83398945  0.02532815    -0.23300
F292        F  0.95780943  0.77309223  0.03415691    -0.20630
F293        F  0.99573012  0.77200585  0.99147190    -0.20310
F294        F  0.09974743  0.70058899  0.11601694    -0.20360
F295        F  0.10860276  0.67073629  0.07122327    -0.20680
F296        F  0.03898578  0.63209246  0.09581265    -0.23360
C297        C  0.32867834  0.05266246  0.17056225    -0.06190
C298        C  0.31294897  0.08061282  0.15569236    -0.00270
C299        C  0.27411212  0.05753810  0.13380130    -0.08840
C300        C  0.25749523  0.00900844  0.12465663    -0.06220
C301        C  0.27741050  0.98280063  0.13710082    -0.00280
C302        C  0.31037111  0.00362997  0.16255693    -0.08750
C303        C  0.32863878  0.97594188  0.18074798     0.61630
H304        H  0.35709816  0.07012655  0.18794241     0.12320
H305        H  0.23130127  0.99242575  0.10601299     0.12340
C306        C  0.25220425  0.08428692  0.11846260     0.61860
F307        F  0.34516037  0.99683874  0.20955832    -0.23300
F308        F  0.36658304  0.97627750  0.16596092    -0.20630
F309        F  0.29174026  0.92865464  0.18453359    -0.20310
F310        F  0.28684603  0.12174069  0.10175681    -0.20360
F311        F  0.23437027  0.10242068  0.14025577    -0.20680
F312        F  0.21417523  0.05421803  0.09871183    -0.23360
C313        C  0.93105439  0.21555128  0.29540972    -0.06190
C314        C  0.92497933  0.22917261  0.32497697    -0.00270
C315        C  0.96570930  0.26555833  0.34147826    -0.08840
C316        C  0.01065279  0.28977603  0.32693419    -0.06220
C317        C  0.01598336  0.27935334  0.29630987    -0.00280
C318        C  0.97585481  0.24024822  0.28062845    -0.08750
C319        C  0.97957723  0.22639136  0.24795581     0.61630
H320        H  0.89950448  0.18709141  0.28322589     0.12320
H321        H  0.04167080  0.31912286  0.33892657     0.12340
C322        C  0.96140004  0.27865771  0.37420507     0.61860
F323        F  0.93589246  0.18867081  0.23650398    -0.23300
F324        F  0.01333956  0.21185575  0.24664868    -0.20630
F325        F  0.99372081  0.26568425  0.22950537    -0.20310
F326        F  0.94156744  0.23739160  0.39142016    -0.20360
F327        F  0.93192011  0.29841526  0.37531747    -0.20680
F328        F  0.00597100  0.31204017  0.38716703    -0.23360
C329        C  0.61436714  0.22672320  0.41315693    -0.06190
C330        C  0.57521213  0.21426327  0.39317287    -0.00270
C331        C  0.58074673  0.20699829  0.36175653    -0.08840
C332        C  0.62150095  0.20504577  0.35241315    -0.06220
C333        C  0.65869916  0.21276021  0.37281409    -0.00280
C334        C  0.65688351  0.22785022  0.40350086    -0.08750
C335        C  0.69749660  0.24654501  0.42731289     0.61630
H336        H  0.61125443  0.23461243  0.43688672     0.12320
H337        H  0.62338502  0.19476620  0.32901823     0.12340
C338        C  0.54171574  0.19605756  0.33829420     0.61860
F339        F  0.71227152  0.29439435  0.43421773    -0.23300
F340        F  0.73720413  0.24453132  0.41816445    -0.20630
F341        F  0.68082200  0.22052166  0.45366244    -0.20310
F342        F  0.52600660  0.22874773  0.34155485    -0.20360
F343        F  0.50449556  0.14946646  0.34237186    -0.20680
F344        F  0.55767409  0.19901074  0.30878318    -0.23360
C345        C  0.40816749  0.01584347  0.49137563    -0.06190
C346        C  0.38643009  0.04465063  0.49056502    -0.00270
C347        C  0.35456044  0.04032398  0.51479476    -0.08840
C348        C  0.35006849  0.01130825  0.03907287    -0.06220
C349        C  0.36443246  0.97729338  0.03704246    -0.00280
C350        C  0.39555140  0.98012562  0.01374634    -0.08750
C351        C  0.41464931  0.94566723  0.01278216     0.61630
H352        H  0.43210302  0.01894420  0.47327166     0.12320
H353        H  0.32845441  0.00939655  0.05839240     0.12340
C354        C  0.32059967  0.06094383  0.51510148     0.61860
F355        F  0.44501735  0.95462393  0.98854542    -0.23300
F356        F  0.37667500  0.89834313  0.00992951    -0.20630
F357        F  0.44036242  0.95106504  0.03953792    -0.20310
F358        F  0.28918882  0.04298811  0.49005643    -0.20360
F359        F  0.34648007  0.11077562  0.51536804    -0.20680
F360        F  0.29180357  0.04798568  0.04050365    -0.23360
C361        C  0.47030560  0.26385141  0.06474390    -0.06190
C362        C  0.45256059  0.22139244  0.08157511    -0.00270
C363        C  0.44350149  0.17814792  0.06656516    -0.08840
C364        C  0.44583145  0.17697663  0.03450607    -0.06220
C365        C  0.45508761  0.21718157  0.01719229    -0.00280
C366        C  0.47014008  0.26212679  0.03245132    -0.08750
C367        C  0.48216917  0.30685841  0.01463956     0.61630
H368        H  0.47839894  0.29706123  0.07677728     0.12320
H369        H  0.43660262  0.14338775  0.02258324     0.12340
C370        C  0.42893545  0.13287028  0.08439752     0.61860
F371        F  0.49561875  0.34685538  0.03368005    -0.23300
F372        F  0.44218552  0.29851526  0.49731555    -0.20630
F373        F  0.52003932  0.31759444  0.49555494    -0.20310
F374        F  0.38202258  0.11366604  0.09409156    -0.20360
F375        F  0.45962849  0.14413351  0.10952295    -0.20680
F376        F  0.43167496  0.09808886  0.06690124    -0.23360
C377        C  0.41617427  0.23883648  0.32229237    -0.06190
C378        C  0.41695180  0.19616810  0.32856379    -0.00270
C379        C  0.40382866  0.16127060  0.30437299    -0.08840
C380        C  0.40221058  0.17529696  0.27443367    -0.06220
C381        C  0.40488089  0.21950361  0.26805832    -0.00280
C382        C  0.40495906  0.24821567  0.29309301    -0.08750
C383        C  0.38899339  0.28535548  0.29140607     0.61630
H384        H  0.42124235  0.26404674  0.34073824     0.12320
H385        H  0.39764112  0.15069599  0.25574532     0.12340
C386        C  0.38476653  0.10806183  0.30979546     0.61860
F387        F  0.35722499  0.27768916  0.31461611    -0.23300
F388        F  0.36472948  0.28188053  0.26449568    -0.20630
F389        F  0.42844004  0.33158011  0.29523151    -0.20310
F390        F  0.34870780  0.09277853  0.33080596    -0.20360
F391        F  0.42076469  0.10031805  0.32026224    -0.20680
F392        F  0.36471630  0.07966077  0.28351960    -0.23360
C393        C  0.78535594  0.42878119  0.05903244    -0.06190
C394        C  0.78994928  0.43089271  0.02714479    -0.00270
C395        C  0.79052047  0.39297117  0.01077190    -0.08840
C396        C  0.78877504  0.35482904  0.02712733    -0.06220
C397        C  0.78965021  0.35549015  0.05917882    -0.00280
C398        C  0.78675703  0.39216705  0.07551498    -0.08750
C399        C  0.78855708  0.39406739  0.11008505     0.61630
H400        H  0.78548793  0.45860450  0.07115941     0.12320
H401        H  0.79179392  0.32664939  0.01512964     0.12340
C402        C  0.79499689  0.39408711  0.47638504     0.61860
F403        F  0.78358639  0.43167963  0.12177681    -0.23300
F404        F  0.83234508  0.40064981  0.12058857    -0.20630
F405        F  0.75145789  0.35095926  0.12084938    -0.20310
F406        F  0.83807330  0.43414363  0.46827968    -0.20360
F407        F  0.75693934  0.39642414  0.46317709    -0.20680
F408        F  0.79428606  0.35327050  0.46484353    -0.23360
C409        C  0.03137814  0.38117379  0.13166561    -0.06190
C410        C  0.99478021  0.39148239  0.13568214    -0.00270
C411        C  0.99373106  0.41450304  0.16301570    -0.08840
C412        C  0.02320928  0.41657288  0.18785281    -0.06220
C413        C  0.04919676  0.39199289  0.18600125    -0.00280
C414        C  0.05087548  0.37120792  0.15704612    -0.08750
C415        C  0.06839288  0.33529615  0.15199173     0.61630
H416        H  0.03372902  0.36744988  0.10941507     0.12320
H417        H  0.02309114  0.43388797  0.20924086     0.12340
C418        C  0.96135631  0.43591135  0.16535848     0.61860
F419        F  0.04480286  0.29671065  0.17123252    -0.23300
F420        F  0.11759705  0.35785804  0.15677143    -0.20630
F421        F  0.05884910  0.31568279  0.12257463    -0.20310
F422        F  0.91348293  0.40040808  0.16018779    -0.20360
F423        F  0.97434184  0.47093571  0.14363982    -0.20680
F424        F  0.96559344  0.45724560  0.19382148    -0.23360
C425        C  0.77284831  0.23901683  0.20368597    -0.06190
C426        C  0.81938012  0.25522701  0.19232417    -0.00270
C427        C  0.85810491  0.26830247  0.21391178    -0.08840
C428        C  0.84799615  0.25825476  0.24473646    -0.06220
C429        C  0.80123446  0.23763474  0.25550823    -0.00280
C430        C  0.76323725  0.23048767  0.23524985    -0.08750
C431        C  0.71270511  0.21192618  0.24685246     0.61630
H432        H  0.74357547  0.23036239  0.18757597     0.12320
H433        H  0.87670624  0.26401522  0.26063450     0.12340
C434        C  0.91057128  0.29294858  0.20511280     0.61860
F435        F  0.68082730  0.20725277  0.22369065    -0.23300
F436        F  0.71400376  0.24409942  0.26880251    -0.20630
F437        F  0.69528308  0.16712137  0.25965123    -0.20310
F438        F  0.91898495  0.32773512  0.18438776    -0.20360
F439        F  0.92109608  0.25953524  0.19272198    -0.20680
F440        F  0.94165454  0.31604099  0.22990576    -0.23360
C441        C  0.82435621  0.20092961  0.44890760    -0.06190
C442        C  0.77560695  0.17439134  0.43984058    -0.00270
C443        C  0.73973328  0.15819654  0.46252947    -0.08840
C444        C  0.75425889  0.17760627  0.49252924    -0.06220
C445        C  0.80314861  0.20968108  0.50055049    -0.00280
C446        C  0.83892797  0.21788647  0.47885553    -0.08750
C447        C  0.89259591  0.24499711  0.48645441     0.61630
H448        H  0.85161513  0.21023047  0.43185345     0.12320
H449        H  0.72733333  0.16886651  0.00972107     0.12340
C450        C  0.68707436  0.12009982  0.45576260     0.61860
F451        F  0.91900364  0.23848577  0.46408816    -0.23300
F452        F  0.90093162  0.22827560  0.01328508    -0.20630
F453        F  0.90894936  0.29388902  0.48898842    -0.20310
F454        F  0.68446245  0.07855582  0.44388154    -0.20360
F455        F  0.66634693  0.13664079  0.43511086    -0.20680
F456        F  0.65989065  0.10766175  0.48184595    -0.23360
C457        C  0.42036889  0.39995212  0.10687690    -0.06190
C458        C  0.40074625  0.35030035  0.10031735    -0.00270
C459        C  0.38285469  0.33201220  0.06985285    -0.08840
C460        C  0.38381979  0.36424496  0.04846777    -0.06220
C461        C  0.39164815  0.40941411  0.05776567    -0.00280
C462        C  0.41485065  0.42965835  0.08614251    -0.08750
C463        C  0.43499548  0.48211426  0.09512689     0.61630
H464        H  0.43654920  0.41496011  0.12918702     0.12320
H465        H  0.36838958  0.35095375  0.02578692     0.12340
C466        C  0.35613725  0.27844394  0.05997477     0.61860
F467        F  0.48432221  0.50393721  0.10041206    -0.23300
F468        F  0.41408391  0.48479712  0.12180410    -0.20630
F469        F  0.42706666  0.50713910  0.07259201    -0.20310
F470        F  0.31292040  0.25394164  0.07506309    -0.20360
F471        F  0.38363746  0.25790277  0.06602356    -0.20680
F472        F  0.34542197  0.27142939  0.02900530    -0.23360
C473        C  0.20042450  0.45802993  0.11672011    -0.06190
C474        C  0.24463468  0.46628493  0.10586825    -0.00270
C475        C  0.28297124  0.48013014  0.12709165    -0.08840
C476        C  0.27220246  0.46864624  0.15801972    -0.06220
C477        C  0.22554560  0.45330900  0.16833145    -0.00280
C478        C  0.19317684  0.45788140  0.14833770    -0.08750
C479        C  0.16540333  0.48134933  0.15941167     0.61630
H480        H  0.17277686  0.45427498  0.10062302     0.12320
H481        H  0.29992745  0.47261354  0.17410092     0.12340
C482        C  0.33406952  0.51218303  0.11710890     0.61860
F483        F  0.12416252  0.46622282  0.14168728    -0.23300
F484        F  0.19442345  0.53099334  0.15684676    -0.20630
F485        F  0.15314515  0.47199739  0.18953695    -0.20310
F486        F  0.33867378  0.55441599  0.10589694    -0.20360
F487        F  0.34434927  0.48908783  0.09423797    -0.20680
F488        F  0.36687939  0.52470516  0.14117289    -0.23360
C489        C  0.22339920  0.39920827  0.36346267    -0.06190
C490        C  0.19245779  0.41619090  0.35522014    -0.00270
C491        C  0.17258819  0.43187268  0.37862590    -0.08840
C492        C  0.18905308  0.43467592  0.40889298    -0.06220
C493        C  0.22269880  0.42085591  0.41662087    -0.00280
C494        C  0.23809801  0.40007708  0.39370294    -0.08750
C495        C  0.26727191  0.37594223  0.40071288     0.61630
H496        H  0.23643331  0.38508027  0.34577647     0.12320
H497        H  0.17658262  0.44895037  0.42685851     0.12340
C498        C  0.13435578  0.44560233  0.37246969     0.61860
F499        F  0.27239591  0.35289972  0.37524717    -0.23300
F500        F  0.24335650  0.34096188  0.42209735    -0.20630
F501        F  0.31326166  0.40978694  0.41125453    -0.20310
F502        F  0.09387183  0.40672550  0.35876816    -0.20360
F503        F  0.15218252  0.48505601  0.35379548    -0.20680
F504        F  0.11971169  0.45780600  0.39904101    -0.23360
C505        C  0.02834452  0.26619958  0.05430204    -0.06190
C506        C  0.00786064  0.29591745  0.05071563    -0.00270
C507        C  0.03625829  0.34114261  0.03570004    -0.08840
C508        C  0.08145196  0.35280586  0.02451337    -0.06220
C509        C  0.10438859  0.32667030  0.03127662    -0.00280
C510        C  0.07644012  0.28108836  0.04517151    -0.08750
C511        C  0.09703552  0.24846675  0.55026941     0.61630
H512        H  0.00713016  0.23199547  0.06544149     0.12320
H513        H  0.10125898  0.38548681  0.01169664     0.12340
C514        C  0.02256285  0.38034112  0.03285717     0.61860
F515        F  0.06315122  0.20450728  0.56208046    -0.23300
F516        F  0.13611924  0.27079295  0.07049209    -0.20630
F517        F  0.11176935  0.23912002  0.52276786    -0.20310
F518        F  0.01392004  0.39323032  0.06122932    -0.20360
F519        F  0.98238180  0.36422299  0.01403868    -0.20680
F520        F  0.05889765  0.42259390  0.02054819    -0.23360
C521        C  0.29753241  0.22751658  0.46228085    -0.06190
C522        C  0.33785706  0.25085514  0.44324530    -0.00270
C523        C  0.35576552  0.29988557  0.43625929    -0.08840
C524        C  0.33566089  0.32489482  0.45054346    -0.06220
C525        C  0.29742665  0.30296127  0.47126739    -0.00280
C526        C  0.27674828  0.25272821  0.47635891    -0.08750
C527        C  0.23295309  0.22581709  0.49613173     0.61630
H528        H  0.28368535  0.18973472  0.46715492     0.12320
H529        H  0.35162127  0.36314304  0.44628515     0.12340
C530        C  0.39599955  0.32613160  0.41368602     0.61860
F531        F  0.21529743  0.17636205  0.49525050    -0.23300
F532        F  0.19649338  0.23340025  0.48588399    -0.20630
F533        F  0.24499194  0.24219214  0.02610193    -0.20310
F534        F  0.38666528  0.29737882  0.38766541    -0.20360
F535        F  0.43982679  0.33676781  0.42673030    -0.20680
F536        F  0.39992327  0.36927415  0.40491331    -0.23360
C537        C  0.37241754  0.56332732  0.44473189    -0.06190
C538        C  0.36395585  0.57139418  0.47495874    -0.00270
C539        C  0.38972900  0.61859594  0.48801425    -0.08840
C540        C  0.42681464  0.65576119  0.47110376    -0.06220
C541        C  0.43867925  0.64623459  0.44194206    -0.00280
C542        C  0.40900977  0.60004092  0.42780148    -0.08750
C543        C  0.41514528  0.58694627  0.39543987     0.61630
H544        H  0.35164279  0.52718345  0.43455034     0.12320
H545        H  0.44965476  0.69130401  0.48171005     0.12340
C546        C  0.37935434  0.62852288  0.02005415     0.61860
F547        F  0.37144334  0.56757649  0.37956589    -0.23300
F548        F  0.42872513  0.55238325  0.39622445    -0.20630
F549        F  0.44910080  0.62637205  0.37965224    -0.20310
F550        F  0.38874028  0.60177768  0.04050347    -0.20360
F551        F  0.33120440  0.61529845  0.02164720    -0.20680
F552        F  0.40743551  0.67710587  0.02849716    -0.23360
C553        C  0.72187273  0.92217826  0.36983170    -0.06190
C554        C  0.69573536  0.91024563  0.39698901    -0.00270
C555        C  0.69296371  0.94734149  0.41317967    -0.08840
C556        C  0.71222911  0.99336036  0.40054903    -0.06220
C557        C  0.73366931  0.00399684  0.37188427    -0.00280
C558        C  0.74071530  0.96850378  0.35678730    -0.08750
C559        C  0.76538034  0.97834379  0.32634235     0.61630
H560        H  0.72416831  0.89373387  0.35767775     0.12320
H561        H  0.70758949  0.02069626  0.41226920     0.12340
C562        C  0.66552971  0.93742445  0.44231108     0.61860
F563        F  0.76755443  0.93878123  0.31528139    -0.23300
F564        F  0.81220890  0.01710151  0.32962695    -0.20630
F565        F  0.74021405  0.98903053  0.30509400    -0.20310
F566        F  0.67593106  0.90924102  0.46086296    -0.20360
F567        F  0.61669115  0.91373273  0.43489944    -0.20680
F568        F  0.67761221  0.97978471  0.45847042    -0.23360
C569        C  0.69482382  0.66693200  0.45205734    -0.06190
C570        C  0.71206033  0.71567965  0.45862936    -0.00270
C571        C  0.75687893  0.74311696  0.47468286    -0.08840
C572        C  0.78437296  0.72068053  0.98194388    -0.06220
C573        C  0.76826716  0.67205309  0.47295068    -0.00280
C574        C  0.72302897  0.64571193  0.45645894    -0.08750
C575        C  0.70639604  0.59762717  0.43977877     0.61630
H576        H  0.65908042  0.64560419  0.44164602     0.12320
H577        H  0.81828873  0.74083879  0.99466970     0.12340
C578        C  0.77372911  0.79458002  0.98516488     0.61860
F579        F  0.66819921  0.58502107  0.41952511    -0.23300
F580        F  0.69114337  0.56021944  0.45993103    -0.20630
F581        F  0.74440673  0.60228070  0.42302183    -0.20310
F582        F  0.73937274  0.79484391  0.00376582    -0.20360
F583        F  0.77973216  0.82264112  0.96016876    -0.20680
F584        F  0.81716888  0.81504140  0.00147026    -0.23360
C585        C  0.39486245  0.78631945  0.09219696    -0.06190
C586        C  0.36276456  0.78570519  0.11372775    -0.00270
C587        C  0.37312565  0.78337042  0.14501321    -0.08840
C588        C  0.41504211  0.78308766  0.15392172    -0.06220
C589        C  0.44958438  0.78990813  0.13293496    -0.00280
C590        C  0.43871123  0.78931833  0.10135374    -0.08750
C591        C  0.47527190  0.79693583  0.07767779     0.61630
H592        H  0.38768741  0.78932641  0.06838590     0.12320
H593        H  0.42451565  0.78432219  0.17786024     0.12340
C594        C  0.34659307  0.79248265  0.16925494     0.61860
F595        F  0.45581355  0.78902502  0.04835477    -0.23300
F596        F  0.49193335  0.76528073  0.08212258    -0.20630
F597        F  0.51299873  0.84424139  0.08038647    -0.20310
F598        F  0.29746388  0.76059001  0.16516826    -0.20360
F599        F  0.35831449  0.84018272  0.16688180    -0.20680
F600        F  0.36040853  0.78684726  0.19814743    -0.23360
C601        C  0.65850809  0.02572135  0.21106054    -0.06190
C602        C  0.61106387  0.98919160  0.21490152    -0.00270
C603        C  0.58566159  0.99162022  0.24012652    -0.08840
C604        C  0.61190343  0.02523144  0.26400569    -0.06220
C605        C  0.66254154  0.05521185  0.26287955    -0.00280
C606        C  0.68588350  0.05768915  0.23473628    -0.08750
C607        C  0.73996071  0.08955011  0.22935096     0.61630
H608        H  0.67689944  0.02295100  0.19154919     0.12320
H609        H  0.59317674  0.02552111  0.28431799     0.12340
C610        C  0.53126929  0.96145315  0.24154618     0.61860
F611        F  0.75122526  0.09046017  0.19890536    -0.23300
F612        F  0.76557531  0.07257600  0.24523889    -0.20630
F613        F  0.75527478  0.13648921  0.23813254    -0.20310
F614        F  0.51809549  0.93682156  0.26846282    -0.20360
F615        F  0.51127275  0.92843405  0.21728928    -0.20680
F616        F  0.51256872  0.99190407  0.24070140    -0.23360
C617        C  0.55282198  0.74490964  0.27033293    -0.06190
C618        C  0.55121935  0.78582138  0.26182850    -0.00270
C619        C  0.54629318  0.81490833  0.28448175    -0.08840
C620        C  0.54932863  0.80569383  0.31534432    -0.06220
C621        C  0.55630314  0.76787354  0.32389105    -0.00280
C622        C  0.55577567  0.73552772  0.30117565    -0.08750
C623        C  0.56304539  0.69398490  0.30901597     0.61630
H624        H  0.55738475  0.72348341  0.25272984     0.12320
H625        H  0.54965818  0.83024391  0.33282116     0.12340
C626        C  0.54183273  0.85819126  0.27689388     0.61860
F627        F  0.54837337  0.66037204  0.28507080    -0.23300
F628        F  0.53616424  0.67068842  0.33411867    -0.20630
F629        F  0.61157467  0.71161455  0.31509262    -0.20310
F630        F  0.52444676  0.85458446  0.24736582    -0.20360
F631        F  0.58660601  0.89999479  0.28043740    -0.20680
F632        F  0.50978598  0.86095062  0.29645470    -0.23360
C633        C  0.59545555  0.83550279  0.05467838    -0.06190
C634        C  0.60129898  0.80593682  0.07570401    -0.00270
C635        C  0.60281429  0.76489923  0.06492532    -0.08840
C636        C  0.59825249  0.75553435  0.03336537    -0.06220
C637        C  0.58687993  0.78235691  0.01323600    -0.00280
C638        C  0.58221853  0.82099598  0.02449452    -0.08750
C639        C  0.55936876  0.84415032  0.50605973     0.61630
H640        H  0.59708492  0.86858141  0.06236179     0.12320
H641        H  0.60154173  0.72572644  0.02429475     0.12340
C642        C  0.60796684  0.73063489  0.08602216     0.61860
F643        F  0.54807986  0.87280915  0.02400463    -0.23300
F644        F  0.51703777  0.80863340  0.49177820    -0.20630
F645        F  0.59098573  0.87324159  0.48468728    -0.20310
F646        F  0.56879173  0.70913441  0.10499257    -0.20360
F647        F  0.65028081  0.75604295  0.10327801    -0.20680
F648        F  0.60966646  0.69389230  0.07005138    -0.23360
C649        C  0.79862206  0.07265540  0.12007128    -0.06190
C650        C  0.77763990  0.10222812  0.11928698    -0.00270
C651        C  0.72808153  0.08120474  0.12812271    -0.08840
C652        C  0.70226849  0.03230553  0.13552169    -0.06220
C653        C  0.72401376  0.00458340  0.13882817    -0.00280
C654        C  0.77234215  0.02387822  0.12986749    -0.08750
C655        C  0.79448627  0.99206710  0.12923192     0.61630
H656        H  0.83572163  0.08797991  0.11317428     0.12320
H657        H  0.66405904  0.01516700  0.14008132     0.12340
C658        C  0.70134705  0.10914763  0.13153647     0.61860
F659        F  0.84124086  0.01650931  0.11868316    -0.23300
F660        F  0.76691775  0.95213407  0.11010667    -0.20630
F661        F  0.79544165  0.97645368  0.15827352    -0.20310
F662        F  0.69516685  0.12436540  0.10341311    -0.20360
F663        F  0.72684196  0.14837367  0.15151300    -0.20680
F664        F  0.65572990  0.08129349  0.14343295    -0.23360
C665        C  0.60094295  0.42815272  0.24368311    -0.06190
C666        C  0.64360255  0.44464006  0.22777782    -0.00270
C667        C  0.64489464  0.41434617  0.20408966    -0.08840
C668        C  0.60077929  0.37274144  0.19398638    -0.06220
C669        C  0.55683949  0.35946631  0.20811781    -0.00280
C670        C  0.55806397  0.38585073  0.23489757    -0.08750
C671        C  0.51492795  0.36958503  0.25498688     0.61630
H672        H  0.60104939  0.44999353  0.26285366     0.12320
H673        H  0.60004549  0.35122831  0.17444882     0.12340
C674        C  0.69205003  0.42518901  0.18983678     0.61860
F675        F  0.52663187  0.39661499  0.28203229    -0.23300
F676        F  0.49773971  0.32203679  0.26249523    -0.20630
F677        F  0.47974604  0.37455744  0.24009412    -0.20310
F678        F  0.72355544  0.42719219  0.21238417    -0.20360
F679        F  0.71295774  0.46893079  0.17533077    -0.20680
F680        F  0.68516679  0.38962676  0.16859646    -0.23360
C681        C  0.81794307  0.60082786  0.14489877    -0.06190
C682        C  0.76959415  0.58384948  0.15203943    -0.00270
C683        C  0.73352827  0.56338903  0.12833648    -0.08840
C684        C  0.74801122  0.56090282  0.09847783    -0.06220
C685        C  0.79632744  0.57643822  0.09178398    -0.00280
C686        C  0.83218955  0.59671321  0.11564219    -0.08750
C687        C  0.88590090  0.61670505  0.11091213     0.61630
H688        H  0.84529069  0.61748110  0.16287530     0.12320
H689        H  0.72126891  0.54546605  0.08004690     0.12340
C690        C  0.68014136  0.54358372  0.13395105     0.61860
F691        F  0.91338210  0.63583359  0.13756106    -0.23300
F692        F  0.90230220  0.65379357  0.09059743    -0.20630
F693        F  0.89409800  0.58063083  0.10047464    -0.20310
F694        F  0.67343498  0.58046088  0.14445824    -0.20360
F695        F  0.66348431  0.50753120  0.15515912    -0.20680
F696        F  0.65199661  0.52392676  0.10761730    -0.23360
C697        C  0.82620366  0.56588847  0.35054526    -0.06190
C698        C  0.78293412  0.55974872  0.33858617    -0.00270
C699        C  0.74090325  0.53748103  0.35675029    -0.08840
C700        C  0.74617256  0.53003757  0.38791470    -0.06220
C701        C  0.79143964  0.54272615  0.40071558    -0.00280
C702        C  0.82991805  0.55460020  0.38078773    -0.08750
C703        C  0.87443443  0.55340297  0.39029326     0.61630
H704        H  0.85734575  0.57920367  0.33606011     0.12320
H705        H  0.71551400  0.51768717  0.40269440     0.12340
C706        C  0.69035903  0.52224651  0.34514104     0.61860
F707        F  0.88196298  0.52568358  0.36900892    -0.23300
F708        F  0.86908388  0.53243244  0.41835178    -0.20630
F709        F  0.91410900  0.59990775  0.39130266    -0.20310
F710        F  0.66028165  0.47317936  0.34956230    -0.20360
F711        F  0.68827832  0.53042066  0.31453397    -0.20680
F712        F  0.67300109  0.54717400  0.36149386    -0.23360
C713        C  0.61405777  0.59499325  0.32187893    -0.06190
C714        C  0.66499543  0.62061840  0.32269599    -0.00270
C715        C  0.69054082  0.64667726  0.35026677    -0.08840
C716        C  0.66373960  0.64850692  0.37407023    -0.06220
C717        C  0.61443915  0.62997831  0.37115231    -0.00280
C718        C  0.58820198  0.59966997  0.34598861    -0.08750
C719        C  0.53363093  0.57039425  0.34474551     0.61630
H720        H  0.59439038  0.57286437  0.30194787     0.12320
H721        H  0.68246409  0.67205237  0.39348392     0.12340
C722        C  0.74567968  0.67576942  0.35536254     0.61860
F723        F  0.51612931  0.57998866  0.31852432    -0.23300
F724        F  0.51400993  0.58033277  0.36973091    -0.20630
F725        F  0.51879268  0.52160702  0.34442352    -0.20310
F726        F  0.76654303  0.71329613  0.33511773    -0.20360
F727        F  0.76430684  0.64560268  0.35216280    -0.20680
F728        F  0.75974100  0.69686610  0.38434290    -0.23360
C729        C  0.74609248  0.77326774  0.23635740    -0.06190
C730        C  0.74141156  0.73633903  0.21619564    -0.00270
C731        C  0.72355378  0.73423924  0.18605785    -0.08840
C732        C  0.70388757  0.76339457  0.17885917    -0.06220
C733        C  0.70441447  0.79713396  0.19981114    -0.00280
C734        C  0.72783876  0.80384951  0.22867236    -0.08750
C735        C  0.73004244  0.84028732  0.25214140     0.61630
H736        H  0.76030918  0.77525417  0.25919077     0.12320
H737        H  0.68611797  0.75846137  0.15683565     0.12340
C738        C  0.72069040  0.69898307  0.16155569     0.61860
F739        F  0.75473429  0.84147096  0.27854512    -0.23300
F740        F  0.68371317  0.82817486  0.25986366    -0.20630
F741        F  0.75363430  0.88620553  0.24028184    -0.20910
F742        F  0.67458619  0.65885179  0.16085255    -0.20360
F743        F  0.75434919  0.68491915  0.16657310    -0.20680
F744        F  0.72971921  0.72021951  0.13333411    -0.23360
C745        C  0.23321298  0.62765513  0.32549426    -0.06190
C746        C  0.20958024  0.64548771  0.30750325    -0.00270
C747        C  0.19242440  0.62438535  0.27775163    -0.08840
C748        C  0.19745833  0.58545120  0.26806799    -0.06220
C749        C  0.21533991  0.56361815  0.28721004    -0.00280
C750        C  0.23609748  0.58656152  0.31624932    -0.08750
C751        C  0.26074469  0.57043482  0.33909251     0.61630
H752        H  0.24712886  0.64429443  0.34788057     0.12320
H753        H  0.18370873  0.56886302  0.24567220     0.12340
C754        C  0.16752485  0.64111878  0.25586952     0.61860
F755        F  0.30868863  0.60667534  0.34272327    -0.23300
F756        F  0.25959721  0.52830120  0.33081706    -0.20630
F757        F  0.23892082  0.56349901  0.36702163    -0.20310
F758        F  0.15637398  0.61694521  0.22777531    -0.20360
F759        F  0.19806222  0.68928635  0.25063738    -0.20680
F760        F  0.12471098  0.63315611  0.26785043    -0.23360
C761        C  0.01930859  0.65921038  0.45881309    -0.06190
C762        C  0.98620544  0.61019155  0.45436789    -0.00270
C763        C  0.99179076  0.58440827  0.43000146    -0.08840
C764        C  0.02481791  0.61089102  0.40720157    -0.06220
C765        C  0.05072787  0.66204535  0.40818960    -0.00280
C766        C  0.04905810  0.68679898  0.43547625    -0.08750
C767        C  0.07441846  0.74178391  0.44032759     0.61630
H768        H  0.01541350  0.67699111  0.47891490     0.12320
H769        H  0.02824633  0.59147720  0.38783212     0.12340
C770        C  0.96650961  0.52970542  0.42874935     0.61860
F771        F  0.06862887  0.75542965  0.46937494    -0.23300
F772        F  0.05584932  0.76113658  0.42006068    -0.20630
F773        F  0.12322877  0.76215990  0.43679986    -0.20310
F774        F  0.94223020  0.51180333  0.40111905    -0.20360
F775        F  0.93402613  0.50916528  0.45199182    -0.20680
F776        F  0.00078567  0.51600118  0.43160753    -0.23360
C777        C  0.21986644  0.94307171  0.36651965    -0.06190
C778        C  0.24398344  0.92294087  0.35084280    -0.00270
C779        C  0.29330160  0.95308114  0.34432280    -0.08840
C780        C  0.31807932  0.00002318  0.35717174    -0.06220
C781        C  0.29584825  0.01888720  0.37623693    -0.00280
C782        C  0.24503378  0.99096083  0.37921040    -0.08750
C783        C  0.21776891  0.01074524  0.39619676     0.61630
H784        H  0.18163627  0.91992759  0.37054347     0.12320
H785        H  0.35653223  0.02151190  0.35344771     0.12340
C786        C  0.32082339  0.93574298  0.32489056     0.61860
F787        F  0.16826831  0.97907383  0.39429762    -0.23300
F788        F  0.22739425  0.05402157  0.38368390    -0.20630
F789        F  0.23188926  0.01847636  0.42665608    -0.20310
F790        F  0.29303584  0.90949823  0.29958176    -0.20360
F791        F  0.33252971  0.90703930  0.34187112    -0.20680
F792        F  0.36342579  0.97425917  0.31453278    -0.23360
C793        C  0.99224941  0.75111400  0.29900120    -0.06190
C794        C  0.01844779  0.72902158  0.29024353    -0.00270
C795        C  0.99883245  0.69288407  0.26603046    -0.08840
C796        C  0.95163967  0.67611530  0.25500123    -0.06220
C797        C  0.92346397  0.69436946  0.26611660    -0.00280
C798        C  0.94497861  0.73467145  0.28734265    -0.08750
C799        C  0.91778206  0.75838976  0.29965458     0.61630
H800        H  0.00771659  0.77910043  0.31678535     0.12320
H801        H  0.93518686  0.64627969  0.23840593     0.12340
C802        C  0.02503119  0.66880669  0.25238682     0.61860
F803        F  0.94679523  0.79818058  0.31858818    -0.23300
F804        F  0.87931745  0.72556495  0.31648686    -0.20630
F805        F  0.90137702  0.77441740  0.27586193    -0.20310
F806        F  0.02217104  0.63373430  0.27160437    -0.20360
F807        F  0.07270581  0.70281366  0.24764869    -0.20680
F808        F  0.00500562  0.64650209  0.22433883    -0.23360
C809        C  0.19992472  0.74332499  0.44759400    -0.06190
C810        C  0.22497674  0.78546503  0.43062701    -0.00270
C811        C  0.25995974  0.82941471  0.44513032    -0.08840
C812        C  0.26617833  0.83066695  0.47689589    -0.06220
C813        C  0.23772574  0.78981712  0.49438267    -0.00280
C814        C  0.20458364  0.74511500  0.47964339    -0.08750
C815        C  0.17096051  0.70118341  0.99779682     0.61630
H816        H  0.17333467  0.71010879  0.43579862     0.12320
H817        H  0.29044814  0.86480402  0.48865763     0.12340
C818        C  0.28902173  0.87512763  0.42720746     0.61860
F819        F  0.14154384  0.66125245  0.47908883    -0.23300
F820        F  0.14160658  0.71164771  0.01513700    -0.20630
F821        F  0.19773028  0.68918448  0.01678695    -0.20310
F822        F  0.25849249  0.88926077  0.41484134    -0.20360
F823        F  0.31246749  0.86626638  0.40398343    -0.20680
F824        F  0.32358056  0.91314152  0.44536669    -0.23360
C825        C  0.26101422  0.80862874  0.20462056    -0.06190
C826        C  0.22696865  0.80599339  0.18370468    -0.00270
C827        C  0.18220173  0.79782962  0.19453720    -0.08840
C828        C  0.17103540  0.78476187  0.22526651    -0.06220
C829        C  0.20324388  0.77953953  0.24465971    -0.00280
C830        C  0.24983529  0.79270796  0.23412458    -0.08750
C831        C  0.28893892  0.78773987  0.25082255     0.61630
H832        H  0.29720110  0.82222173  0.19779630     0.12320
H833        H  0.13801837  0.78015062  0.23454875     0.12340
C834        C  0.14955901  0.80838313  0.17501287     0.61860
F835        F  0.29384379  0.75213644  0.23602140    -0.23300
F836        F  0.27990370  0.77488857  0.28050272    -0.20630
F837        F  0.33251070  0.83118714  0.25035814    -0.20310
F838        F  0.13042279  0.77583804  0.15072109    -0.20360
F839        F  0.17600286  0.85483433  0.16408284    -0.20680
F840        F  0.11155761  0.80526474  0.19139266    -0.23360
O841        O  0.18066689  0.79952897  0.89255645    -0.82210
C842        C  0.19022638  0.76590373  0.77637311     0.97140
O843        O  0.21847093  0.79612737  0.79662633    -0.71330
O844        O  0.24068963  0.84698609  0.84890253    -0.74920
Al845      Al  0.22241946  0.78153584  0.83687815     1.48980
C846        C  0.21862135  0.86962636  0.84507141     0.92400
O847        O  0.08489883  0.77460867  0.82747556    -0.81140
O848        O  0.08678812  0.66800962  0.85885091    -0.74700
Al849      Al  0.13469664  0.78573213  0.85829373     1.90120
O850        O  0.07337654  0.70725563  0.80771516    -0.73770
O851        O  0.15714459  0.66726060  0.83113820    -0.73620
O852        O  0.15364426  0.72426032  0.78287149    -0.79280
O853        O  0.22768743  0.72624473  0.82229798    -0.77480
O854        O  0.15854313  0.75407990  0.83894848    -1.13620
O855        O  0.22555907  0.76750946  0.87810695    -0.72810
C856        C  0.20955452  0.78384043  0.89871265     0.97910
C857        C  0.06176718  0.73858064  0.80919320     0.94300
Al858      Al  0.12098510  0.69674912  0.82159596     1.55560
O859        O  0.17410981  0.84584317  0.83926287    -0.77430
C860        C  0.19813349  0.68150165  0.82129506     0.98470
C861        C  0.07787354  0.68850935  0.88084638     0.93350
O862        O  0.09189542  0.73269197  0.88018794    -0.82750
O863        O  0.80159622  0.62432284  0.80496801    -0.82210
C864        C  0.76006421  0.58538936  0.68498930     0.97140
O865        O  0.79299293  0.59075687  0.70392805    -0.71330
O866        O  0.84902757  0.61998570  0.75588088    -0.74920
Al867      Al  0.78247823  0.57141490  0.74422188     1.48980
C868        C  0.87075314  0.66577897  0.75798332     0.92400
O869        O  0.77546705  0.70286759  0.75039951    -0.81140
O870        O  0.67039066  0.59870019  0.77027762    -0.74700
Al871      Al  0.78709613  0.65998227  0.77470096     1.90120
O872        O  0.71584918  0.65293527  0.71986865    -0.73770
O873        O  0.66994666  0.52514201  0.74416612    -0.73620
O874        O  0.71995761  0.58003374  0.69397988    -0.79280
O875        O  0.72611165  0.51136864  0.73044456    -0.77480
O876        O  0.75581638  0.60793854  0.75049810    -1.13620
O877        O  0.77033770  0.54997195  0.78487832    -0.72810
C878        C  0.78437574  0.57877947  0.80789552     0.97910
C879        C  0.74552672  0.69551973  0.72905235     0.94300
Al880      Al  0.69877468  0.59059444  0.73333524     1.55560
O881        O  0.84652436  0.68592644  0.75501731    -0.77430
C882        C  0.68221368  0.49591258  0.73470304     0.98470
C883        C  0.69101062  0.62066544  0.79514870     0.93350
O884        O  0.73557280  0.64411839  0.79744023    -0.82750
O885        O  0.61303840  0.84139925  0.73148379    -0.82210
C886        C  0.59785911  0.81698440  0.60796750     0.97140
O887        O  0.60403005  0.79562061  0.62995471    -0.71330
O888        O  0.62839454  0.78726979  0.68661317    -0.74920
Al889      Al  0.57634996  0.79237740  0.66866619     1.48980
C890        C  0.67253748  0.81712503  0.69267544     0.92400
O891        O  0.69134163  0.94585051  0.67824031    -0.81140
O892        O  0.59691248  0.93844711  0.67192555    -0.74700
Al893      Al  0.64797860  0.88913557  0.70208657     1.90120
O894        O  0.65659224  0.92676308  0.63290286    -0.73770
O895        O  0.52482465  0.85347004  0.65209670    -0.73620
O896        O  0.58527659  0.84775444  0.61269538    -0.79280
O897        O  0.51644304  0.78130560  0.64893414    -0.77480
O898        O  0.60558282  0.85688809  0.67194994    -1.13620
O899        O  0.54695551  0.78442817  0.70741613    -0.72810
C900        C  0.57054006  0.80514936  0.73185416     0.97910
C901        C  0.69142898  0.95512500  0.65018237     0.94300
Al902      Al  0.59183139  0.88876039  0.64480716     1.55560
O903        O  0.68814005  0.86221699  0.69306347    -0.77430
C904        C  0.49934604  0.80886079  0.64530612     0.98470
C905        C  0.60179146  0.94377749  0.70047366     0.93350
O906        O  0.61247865  0.91778682  0.71590430    -0.82750
O907        O  0.61549103  0.77840737  0.86007319    -0.82210
C908        C  0.57900784  0.76742055  0.98106387     0.97140
O909        O  0.58748097  0.79742640  0.96021855    -0.71330
O910        O  0.61987025  0.84020012  0.90693678    -0.74920
Al911      Al  0.56663102  0.77857311  0.91915525     1.48980
C912        C  0.66494964  0.85783414  0.90468761     0.92400
O913        O  0.68512101  0.74886253  0.91990969    -0.81140
O914        O  0.59152133  0.65669602  0.91442775    -0.74700
Al915      Al  0.64579035  0.76342699  0.89247882     1.90120
O916        O  0.64194124  0.72165020  0.96096007    -0.73770
O917        O  0.51544961  0.66346480  0.92607334    -0.73620
O918        O  0.56447000  0.72349194  0.97488937    -0.79280
O919        O  0.50494739  0.72526034  0.93210358    -0.77480
O920        O  0.59795164  0.74622297  0.91797243    -1.13620
O921        O  0.54442700  0.76111682  0.87764088    -0.72810
C922        C  0.57229579  0.76832924  0.85557439     0.97910
C923        C  0.68025558  0.73354583  0.94694734     0.94300
Al924      Al  0.57961784  0.69556843  0.94197776     1.55560
O925        O  0.68229263  0.83020866  0.90637167    -0.77430
C926        C  0.48803264  0.67994241  0.93142562     0.98470
C927        C  0.60161013  0.66191738  0.88672442     0.93350
O928        O  0.61479308  0.70140747  0.87422104    -0.82750
O929        O  0.23894019  0.40685204  0.57121165    -0.82210
C930        C  0.24150286  0.42982945  0.94851744     0.97140
O931        O  0.21429302  0.42562290  0.97038090    -0.71330
O932        O  0.17804957  0.39964241  0.02505406    -0.74920
Al933      Al  0.23694227  0.45104683  0.01076287     1.48980
C934        C  0.15861446  0.35425302  0.52700544     0.92400
O935        O  0.26801677  0.33151749  0.01367664    -0.81140
O936        O  0.35917489  0.42904432  0.51603402    -0.74700
Al937      Al  0.25347822  0.37340818  0.53982994     1.90120
O938        O  0.29277650  0.37351176  0.97245618    -0.73770
O939        O  0.35013243  0.50198433  0.00026846    -0.73620
O940        O  0.28569345  0.44432933  0.95349656    -0.79280
O941        O  0.28815414  0.51139025  0.99438628    -0.77480
O942        O  0.26951215  0.41984912  0.51288966    -1.13620
O943        O  0.25621037  0.47715597  0.55177181    -0.72810
C944        C  0.24711877  0.44992675  0.57451950     0.97910
C945        C  0.28330218  0.33622288  0.98660039     0.94300
Al946      Al  0.31800046  0.43613981  0.98785213     1.55560
O947        O  0.18539292  0.33570629  0.52634172    -0.77430
C948        C  0.33301393  0.52778617  0.99252829     0.98470
C949        C  0.35590797  0.41907781  0.54381641     0.93350
O950        O  0.31692807  0.40495207  0.55756010    -0.82750
O951        O  0.85809872  0.24218916  0.65082733    -0.82210
C952        C  0.81586526  0.23411538  0.53124553     0.97140
O953        O  0.78901809  0.21344954  0.55389142    -0.71330
O954        O  0.78575919  0.17764981  0.60827728    -0.74920
Al955      Al  0.79609429  0.23694416  0.59544533     1.48980
C956        C  0.80716879  0.15461242  0.61041116     0.92400
O957        O  0.93872466  0.24966609  0.58409492    -0.81140
O958        O  0.93057687  0.36142354  0.59905401    -0.74700
Al959      Al  0.89361808  0.24653752  0.61512619     1.90120
O960        O  0.94071111  0.30628230  0.55722307    -0.73770
O961        O  0.85313310  0.34443583  0.57167152    -0.73620
O962        O  0.85375569  0.27583531  0.53405522    -0.79280
O963        O  0.78262213  0.28547442  0.58231548    -0.77480
O964        O  0.86049870  0.26690576  0.59272605    -1.13620
O965        O  0.80090299  0.25822774  0.63817915    -0.72810
C966        C  0.82641256  0.25253085  0.65856312     0.97910
C967        C  0.95955122  0.28216739  0.56452669     0.94300
Al968      Al  0.89087948  0.31657001  0.56785249     1.55560
O969        O  0.85224115  0.17692973  0.60609178    -0.77430
C970        C  0.80900799  0.32737115  0.57314483     0.98470
C971        C  0.95039440  0.35291724  0.62104224     0.93350
O972        O  0.93837387  0.31014402  0.62815726    -0.82750
O973        O  0.39493659  0.18013266  0.97782043    -0.82210
C974        C  0.42769014  0.18916955  0.86085276     0.97140
O975        O  0.43068757  0.22008262  0.88098482    -0.71330
O976        O  0.40851067  0.24552884  0.93558887    -0.74920
Al977      Al  0.45258497  0.22545550  0.92157921     1.48980
C978        C  0.36324209  0.22474544  0.93362380     0.92400
O979        O  0.31842445  0.09098848  0.90968562    -0.81140
O980        O  0.42822409  0.08954262  0.94507869    -0.74700
Al981      Al  0.35913595  0.13789403  0.94222593     1.90120
O982        O  0.37289017  0.07495423  0.89461874    -0.73770
O983        O  0.50043788  0.16154724  0.91641403    -0.73620
O984        O  0.43520163  0.15444449  0.86787858    -0.79280
O985        O  0.51171792  0.23114257  0.90527053    -0.77480
O986        O  0.41464393  0.16158557  0.92367195    -1.13620
O987        O  0.47200739  0.22760431  0.96344831    -0.72810
C988        C  0.44038782  0.20824144  0.98428937     0.97910
C989        C  0.32981102  0.06435624  0.89445326     0.94300
Al990      Al  0.43304565  0.12356795  0.90715120     1.55560
O991        O  0.34018224  0.18070259  0.92606760    -0.77430
C992        C  0.52730904  0.20238706  0.90594498     0.98470
C993        C  0.39442731  0.07662510  0.96417196     0.93350
O994        O  0.36530343  0.09114734  0.96157797    -0.82750
O995        O  0.80451106  0.18169481  0.78811128    -0.82210
C996        C  0.76551019  0.16992132  0.90648102     0.97140
O997        O  0.79861615  0.20117718  0.88962418    -0.71330
O998        O  0.85519471  0.23276932  0.83888317    -0.74920
Al999      Al  0.78978919  0.21564869  0.84948359     1.48980
C1000       C  0.87467909  0.20743765  0.83604196     0.92400
O1001       O  0.77517111  0.07472340  0.84041581    -0.81140
O1002       O  0.67117750  0.08575171  0.81477674    -0.74700
Al1003     Al  0.78811577  0.12988396  0.81650803     1.90120
O1004       O  0.70991056  0.06141656  0.86312240    -0.73770
O1005       O  0.67540207  0.15549030  0.84927044    -0.73620
O1006       O  0.72435212  0.13732112  0.89545867    -0.79280
O1007       O  0.73744497  0.22314911  0.86396032    -0.77480
O1008       O  0.75883567  0.15222521  0.84013794    -1.13620
O1009       O  0.77980491  0.22956997  0.80846799    -0.72810
C1010       C  0.79354119  0.21476737  0.78563144     0.97910
C1011       C  0.74052667  0.04917792  0.85753127     0.94300
Al1012     Al  0.70028016  0.11334209  0.85442704     1.55560
O1013       O  0.84860988  0.16248191  0.83762882    -0.77430
C1014       C  0.69247047  0.19668073  0.86168249     0.98470
C1015       C  0.69046934  0.07973653  0.79135346     0.93350
O1016       O  0.73441549  0.09338506  0.79174045    -0.82750
O1017       O  0.22260892  0.83056130  0.53309369    -0.82210
C1018       C  0.24120876  0.81282316  0.65141042     0.97140
O1019       O  0.21198147  0.78375210  0.63080195    -0.71330
O1020       O  0.16574612  0.76344780  0.57581654    -0.74920
Al1021     Al  0.22912447  0.78032520  0.58979800     1.48980
C1022       C  0.14259105  0.78517852  0.57591035     0.92400
O1023       O  0.23726644  0.91698209  0.59972107    -0.81140
O1024       O  0.34958873  0.92002447  0.57572421    -0.74700
Al1025     Al  0.23088084  0.87137978  0.56785995     1.90120
O1026       O  0.30148662  0.92704451  0.62377875    -0.73770
O1027       O  0.34261459  0.84313308  0.59736674    -0.73620
O1028       O  0.28451661  0.84565567  0.64540305    -0.79280
O1029       O  0.28210190  0.77217350  0.60488797    -0.77480
O1030       O  0.25853695  0.84477238  0.58873773    -1.13620
O1031       O  0.24525470  0.77820222  0.54794844    -0.72810
C1032       C  0.23514543  0.79940268  0.52705433     0.97910
C1033       C  0.27047287  0.93902249  0.61983156     0.94300
Al1034     Al  0.31449619  0.88033952  0.60895076     1.55560
O1035       O  0.16565261  0.83019388  0.58103289    -0.77430
C1036       C  0.32709350  0.80024641  0.60416181     0.98470
C1037       C  0.33331968  0.93413461  0.55458236     0.93350
O1038       O  0.28858655  0.91702299  0.55063928    -0.82750
O1039       O  0.17983971  0.38714433  0.70149634    -0.82210
C1040       C  0.18444447  0.41853718  0.82199795     0.97140
O1041       O  0.21221932  0.41388394  0.80322109    -0.71330
O1042       O  0.23823100  0.38963845  0.74823933    -0.74920
Al1043     Al  0.22147813  0.43676109  0.76303333     1.48980
C1044       C  0.21318433  0.34419549  0.74588414     0.92400
O1045       O  0.08181059  0.30683518  0.76053107    -0.81140
O1046       O  0.08417928  0.41668170  0.73698710    -0.74700
Al1047     Al  0.13269920  0.34913916  0.73320853     1.90120
O1048       O  0.07225541  0.36016815  0.78629841    -0.73770
O1049       O  0.16028509  0.48691542  0.76491066    -0.73620
O1050       O  0.15167385  0.42711339  0.81286763    -0.79280
O1051       O  0.22869911  0.49646834  0.77955994    -0.77480
O1052       O  0.15716166  0.40192935  0.75671218    -1.13620
O1053       O  0.22973308  0.46040745  0.72273732    -0.72810
C1054       C  0.21102235  0.43269757  0.69920686     0.97910
C1055       C  0.05946467  0.31686739  0.78024751     0.94300
Al1056     Al  0.12018444  0.42125765  0.77394059     1.55560
O1057       O  0.16923832  0.32427053  0.75113065    -0.77430
C1058       C  0.20134392  0.51337858  0.77702869     0.98470
C1059       C  0.07549520  0.38981063  0.71342945     0.93350
O1060       O  0.09153766  0.36186712  0.71183616    -0.82750
O1061       O  0.83436706  0.60317130  0.93850907    -0.82210
C1062       C  0.80741633  0.57034547  0.55986165     0.97140
O1063       O  0.78402438  0.57470196  0.53778028    -0.71330
O1064       O  0.77309141  0.60244299  0.48323574    -0.74920
Al1065     Al  0.78392132  0.55318281  0.49687222     1.48980
C1066       C  0.79662570  0.64761942  0.48095050     0.92400
O1067       O  0.93159841  0.68020054  0.50072695    -0.81140
O1068       O  0.93049641  0.58059798  0.99410762    -0.74700
Al1069     Al  0.87841374  0.63758301  0.97209716     1.90120
O1070       O  0.91927303  0.63222998  0.53858468    -0.73770
O1071       O  0.84800685  0.50531185  0.50741397    -0.73620
O1072       O  0.83915111  0.55892133  0.55502797    -0.79280
O1073       O  0.77562703  0.49329953  0.51197335    -0.77480
O1074       O  0.84845187  0.58773861  0.49688430    -1.13620
O1075       O  0.78106315  0.53049511  0.95518886    -0.72810
C1076       C  0.80257745  0.55882881  0.93335552     0.97910
C1077       C  0.94468907  0.67239678  0.52641411     0.94300
Al1078     Al  0.88112865  0.57050612  0.52152122     1.55560
O1079       O  0.84233675  0.66945896  0.98420402    -0.77430
C1080       C  0.80440299  0.47771355  0.51331118     0.98470
C1081       C  0.93988451  0.59715750  0.96778825     0.93350
O1082       O  0.91643657  0.61417685  0.95535939    -0.82750
O1083       O  0.38810922  0.20394528  0.61445556    -0.82210
C1084       C  0.41114227  0.23438721  0.73552039     0.97140
O1085       O  0.41132741  0.20514797  0.71567086    -0.71330
O1086       O  0.38776749  0.15519387  0.66276736    -0.74920
Al1087     Al  0.43608110  0.22075203  0.67634726     1.48980
C1088       C  0.34206960  0.13413893  0.66095447     0.92400
O1089       O  0.30657779  0.23297023  0.66466108    -0.81140
O1090       O  0.41250460  0.33511245  0.65262224    -0.74700
Al1091     Al  0.35142070  0.21985224  0.64283844     1.90120
O1092       O  0.35327815  0.28498125  0.69998860    -0.73770
O1093       O  0.48262420  0.33486891  0.68223026    -0.73620
O1094       O  0.41963343  0.27637899  0.72802385    -0.79280
O1095       O  0.49513776  0.27705893  0.69383533    -0.77480
O1096       O  0.40069596  0.24831763  0.66946434    -1.13620
O1097       O  0.46140264  0.23577915  0.63598068    -0.72810
C1098       C  0.43351780  0.22052001  0.61241127     0.97910
C1099       C  0.31250997  0.26007218  0.68758824     0.94300
Al1100     Al  0.41562924  0.30301361  0.68899256     1.55560
O1101       O  0.32230578  0.15922801  0.66195805    -0.77430
C1102       C  0.50981748  0.32177876  0.69354358     0.98470
C1103       C  0.39589588  0.31853443  0.62589001     0.93350
O1104       O  0.37266554  0.27407070  0.62054783    -0.82750
C1105       C  0.23825937  0.31922756  0.69946243    -0.06190
C1106       C  0.23262848  0.31577686  0.73116726    -0.00270
C1107       C  0.24416709  0.28501391  0.74718065    -0.08840
C1108       C  0.26500837  0.26173344  0.73116037    -0.06220
C1109       C  0.27406674  0.26807229  0.69971926    -0.00280
C1110       C  0.25868575  0.29582249  0.68337457    -0.08750
C1111       C  0.26712533  0.30378189  0.64948134     0.61630
H1112       H  0.22803713  0.34201419  0.68745247     0.12320
H1113       H  0.27701519  0.24057857  0.74342240     0.12340
C1114       C  0.23631246  0.27875137  0.78116217     0.61860
F1115       F  0.24625212  0.32879552  0.63756855    -0.23300
F1116       F  0.24733525  0.25956578  0.63398455    -0.20630
F1117       F  0.31614879  0.33044803  0.64452004    -0.20310
F1118       F  0.18775607  0.25945159  0.78691484    -0.20360
F1119       F  0.26268986  0.32331037  0.79620879    -0.20680
F1120       F  0.25062211  0.24796255  0.79274623    -0.23360
C1121       C  0.06930766  0.78199103  0.55185251    -0.06190
C1122       C  0.08954733  0.75791195  0.56743229    -0.00270
C1123       C  0.05982817  0.70720169  0.57167565    -0.08840
C1124       C  0.01284780  0.68269504  0.55881852    -0.06220
C1125       C  0.99328370  0.70575600  0.54163343    -0.00280
C1126       C  0.02169725  0.75673106  0.53871229    -0.08750
C1127       C  0.00188413  0.78433778  0.52221848     0.61630
H1128       H  0.09193717  0.82062563  0.54874302     0.12320
H1129       H  0.99168392  0.64374658  0.56090629     0.12340
C1130       C  0.07702534  0.67749647  0.58882187     0.61860
F1131       F  0.03272640  0.83399941  0.52531966    -0.23300
F1132       F  0.95781568  0.77310367  0.53415071    -0.20630
F1133       F  0.99573343  0.77201341  0.49146524    -0.20310
F1134       F  0.09975041  0.70060142  0.61601331    -0.20360
F1135       F  0.10860617  0.67074605  0.57122088    -0.20680
F1136       F  0.03898848  0.63210464  0.59580963    -0.23360
C1137       C  0.32868582  0.05267131  0.67056014    -0.06190
C1138       C  0.31295932  0.08062251  0.65568836    -0.00270
C1139       C  0.27412500  0.05754893  0.63379556    -0.08840
C1140       C  0.25750622  0.00901843  0.62465239    -0.06220
C1141       C  0.27741808  0.98280910  0.63709894    -0.00280
C1142       C  0.31037741  0.00363830  0.66255571    -0.08750
C1143       C  0.32864257  0.97594950  0.68074836     0.61630
H1144       H  0.35710415  0.07013507  0.68794124     0.12320
H1145       H  0.23131366  0.99243609  0.60600801     0.12340
C1146       C  0.25222228  0.08429985  0.61845331     0.61860
F1147       F  0.34516422  0.99684771  0.70955840    -0.23300
F1148       F  0.36658616  0.97628212  0.66596237    -0.20630
F1149       F  0.29174235  0.92866323  0.68453470    -0.20310
F1150       F  0.28686882  0.12175291  0.60174938    -0.20360
F1151       F  0.23438531  0.10243484  0.64024363    -0.20680
F1152       F  0.21419658  0.05423255  0.59869998    -0.23360
C1153       C  0.93105417  0.21554805  0.79541012    -0.06190
C1154       C  0.92497899  0.22916947  0.82497733    -0.00270
C1155       C  0.96570878  0.26555599  0.84147834    -0.08840
C1156       C  0.01065203  0.28977434  0.82693404    -0.06220
C1157       C  0.01598260  0.27935158  0.79630972    -0.00280
C1158       C  0.97585441  0.24024555  0.78062864    -0.08750
C1159       C  0.97957707  0.22638801  0.74795621     0.61630
H1160       H  0.89950446  0.18708755  0.78322649     0.12320
H1161       H  0.04166982  0.31912169  0.83892624     0.12340
C1162       C  0.96139960  0.27865566  0.87420511     0.61860
F1163       F  0.93589245  0.18866704  0.73650452    -0.23300
F1164       F  0.01333965  0.21185268  0.74664960    -0.20630
F1165       F  0.99372055  0.26568035  0.72950529    -0.20310
F1166       F  0.94156740  0.23738978  0.89142041    -0.20360
F1167       F  0.93191939  0.29841289  0.87531743    -0.20680
F1168       F  0.00597055  0.31203850  0.88716691    -0.23360
C1169       C  0.61436423  0.22671858  0.91315564    -0.06190
C1170       C  0.57520902  0.21425699  0.89317137    -0.00270
C1171       C  0.58074404  0.20699115  0.86175523    -0.08840
C1172       C  0.62149924  0.20504024  0.85241222    -0.06220
C1173       C  0.65869767  0.21275615  0.87281339    -0.00280
C1174       C  0.65688123  0.22784634  0.90349999    -0.08750
C1175       C  0.69749397  0.24654182  0.92731229     0.61630
H1176       H  0.61125113  0.23460822  0.93688527     0.12320
H1177       H  0.62338390  0.19476056  0.82901743     0.12340
C1178       C  0.54171293  0.19604888  0.83829269     0.61860
F1179       F  0.71226778  0.29439089  0.93421714    -0.23300
F1180       F  0.73720221  0.24452920  0.91816417    -0.20630
F1181       F  0.68081934  0.22051821  0.95366174    -0.20310
F1182       F  0.52600413  0.22873947  0.84155216    -0.20360
F1183       F  0.50449271  0.14945808  0.84237141    -0.20680
F1184       F  0.55767092  0.19900009  0.80878173    -0.23360
C1185       C  0.40815610  0.01583545  0.99137056    -0.06190
C1186       C  0.38640632  0.04463095  0.99055100    -0.00270
C1187       C  0.35452104  0.04029389  0.01477305    -0.08840
C1188       C  0.35010618  0.01133063  0.53909089    -0.06220
C1189       C  0.36445421  0.97730423  0.53705087    -0.00280
C1190       C  0.39556159  0.98012997  0.51374879    -0.08750
C1191       C  0.41464692  0.94566125  0.51277604     0.61630
H1192       H  0.43210244  0.01894315  0.97327200     0.12320
H1193       H  0.32849906  0.00942055  0.55841403     0.12340
C1194       C  0.32054534  0.06089666  0.01506869     0.61860
F1195       F  0.44500458  0.95461222  0.48853410    -0.23300
F1196       F  0.37666462  0.89834108  0.50992517    -0.20630
F1197       F  0.44036701  0.95105105  0.53952724    -0.20310
F1198       F  0.28915446  0.04294227  0.99001400    -0.20360
F1199       F  0.34641293  0.11072955  0.01534389    -0.20680
F1200       F  0.29187990  0.04805283  0.54054628    -0.23360
C1201       C  0.47029176  0.26387590  0.56474256    -0.06190
C1202       C  0.45257523  0.22142100  0.58157473    -0.00270
C1203       C  0.44354692  0.17818616  0.56656596    -0.08840
C1204       C  0.44588183  0.17701724  0.53450695    -0.06220
C1205       C  0.45510548  0.21721165  0.51719249    -0.00280
C1206       C  0.47012541  0.26215035  0.53245026    -0.08750
C1207       C  0.48211895  0.30687140  0.51463724     0.61630
H1208       H  0.47836206  0.29707914  0.57677516     0.12320
H1209       H  0.43667701  0.14343476  0.52258440     0.12340
C1210       C  0.42901024  0.13291616  0.58439993     0.61860
F1211       F  0.49554533  0.34686455  0.53367650    -0.23300
F1212       F  0.44224915  0.29853331  0.99731494    -0.20630
F1213       F  0.52008683  0.31755682  0.99556033    -0.20310
F1214       F  0.38210439  0.11370073  0.59411028    -0.20360
F1215       F  0.45972606  0.14419679  0.60951503    -0.20680
F1216       F  0.43174747  0.09813645  0.56690001    -0.23360
C1217       C  0.41617675  0.23884357  0.82229085    -0.06190
C1218       C  0.41695339  0.19617440  0.82856115    -0.00270
C1219       C  0.40382935  0.16127776  0.80436963    -0.08840
C1220       C  0.40221128  0.17530543  0.77443087    -0.06220
C1221       C  0.40488263  0.21951268  0.76805644    -0.00280
C1222       C  0.40496191  0.24822443  0.79309174    -0.08750
C1223       C  0.38899808  0.28536574  0.79140577     0.61630
H1224       H  0.42124530  0.26405299  0.84073738     0.12320
H1225       H  0.39764119  0.15070486  0.75574212     0.12340
C1226       C  0.38476620  0.10806842  0.80979056     0.61860
F1227       F  0.35722784  0.27769766  0.81461494    -0.23300
F1228       F  0.36473707  0.28189497  0.76449487    -0.20630
F1229       F  0.42844545  0.33158943  0.79523366    -0.20310
F1230       F  0.34870715  0.09278455  0.83080075    -0.20360
F1231       F  0.42076362  0.10032304  0.82025664    -0.20680
F1232       F  0.36471582  0.07966893  0.78351413    -0.23360
C1233       C  0.78536301  0.42878933  0.55903530    -0.06190
C1234       C  0.78995555  0.43090204  0.52714755    -0.00270
C1235       C  0.79052282  0.39297967  0.51077327    -0.08840
C1236       C  0.78877410  0.35483514  0.52712740    -0.06220
C1237       C  0.78965095  0.35549486  0.55917896    -0.00280
C1238       C  0.78676124  0.39217253  0.57551657    -0.08750
C1239       C  0.78856355  0.39407159  0.61008659     0.61630
H1240       H  0.78549782  0.45861338  0.57116323     0.12320
H1241       H  0.79179013  0.32665462  0.51512856     0.12340
C1242       C  0.79499442  0.39407682  0.97638369     0.61860
F1243       F  0.78359744  0.43168579  0.62177994    -0.23300
F1244       F  0.83235067  0.40064968  0.62058835    -0.20630
F1245       F  0.75146274  0.35096453  0.62085097    -0.20310
F1246       F  0.83806988  0.43413393  0.96827767    -0.20360
F1247       F  0.75693572  0.39641120  0.96317517    -0.20680
F1248       F  0.79428539  0.35326047  0.96484342    -0.23360
C1249       C  0.03137678  0.38117841  0.63166586    -0.06190
C1250       C  0.99477739  0.39148501  0.63568282    -0.00270
C1251       C  0.99372771  0.41450395  0.66301710    -0.08840
C1252       C  0.02320667  0.41657376  0.68785393    -0.06220
C1253       C  0.04919522  0.39199486  0.68600161    -0.00280
C1254       C  0.05087429  0.37121155  0.65704597    -0.08750
C1255       C  0.06839281  0.33530089  0.65199055     0.61630
H1256       H  0.03372839  0.36745582  0.60941509     0.12320
H1257       H  0.02308797  0.43388750  0.70924241     0.12340
C1258       C  0.96135122  0.43591000  0.66536113     0.61860
F1259       F  0.04480325  0.29671423  0.67123059    -0.23300
F1260       F  0.11759703  0.35786364  0.65677037    -0.20630
F1261       F  0.05884964  0.31568901  0.62257311    -0.20310
F1262       F  0.91347824  0.40040497  0.66019142    -0.20360
F1263       F  0.97433397  0.47093403  0.64364253    -0.20680
F1264       F  0.96558901  0.45724401  0.69382429    -0.23360
C1265       C  0.77285120  0.23901487  0.70368684    -0.06190
C1266       C  0.81938305  0.25522424  0.69232536    -0.00270
C1267       C  0.85810768  0.26830010  0.71391303    -0.08840
C1268       C  0.84799854  0.25825308  0.74473774    -0.06220
C1269       C  0.80123659  0.23763333  0.75550919    -0.00280
C1270       C  0.76323971  0.23048630  0.73525061    -0.08750
C1271       C  0.71270744  0.21192535  0.74685289     0.61630
H1272       H  0.74357863  0.23036074  0.68757669     0.12320
H1273       H  0.87670837  0.26401356  0.76063601     0.12340
C1274       C  0.91057401  0.29294535  0.70511396     0.61860
F1275       F  0.68083005  0.20725206  0.72369081    -0.23300
F1276       F  0.71400610  0.24409894  0.76880269    -0.20630
F1277       F  0.69528478  0.16712059  0.75965187    -0.20310
F1278       F  0.91898844  0.32773169  0.68438851    -0.20360
F1279       F  0.92109779  0.25953114  0.69272337    -0.20680
F1280       F  0.94165741  0.31603774  0.72990686    -0.23360
C1281       C  0.82435320  0.20092995  0.94890897    -0.06190
C1282       C  0.77560431  0.17438981  0.93984120    -0.00270
C1283       C  0.73972961  0.15819396  0.96252955    -0.08840
C1284       C  0.75425365  0.17760355  0.99252949    -0.06220
C1285       C  0.80314272  0.20967953  0.00055133    -0.00280
C1286       C  0.83892315  0.21788683  0.97885705    -0.08750
C1287       C  0.89259007  0.24499619  0.98645801     0.61630
H1288       H  0.85161313  0.21023155  0.93185545     0.12320
H1289       H  0.72733916  0.16887032  0.50972105     0.12340
C1290       C  0.68707126  0.12009628  0.95576198     0.61860
F1291       F  0.91900051  0.23848978  0.96409142    -0.23300
F1292       F  0.90094124  0.22828270  0.51328295    -0.20630
F1293       F  0.90894316  0.29388754  0.98899619    -0.20310
F1294       F  0.68446092  0.07855296  0.94388105    -0.20360
F1295       F  0.66634376  0.13663670  0.93510989    -0.20680
F1296       F  0.65988659  0.10765728  0.98184494    -0.23360
C1297       C  0.42038041  0.39996070  0.60687058    -0.06190
C1298       C  0.40074898  0.35030652  0.60031442    -0.00270
C1299       C  0.38284921  0.33201392  0.56985171    -0.08840
C1300       C  0.38381972  0.36424653  0.54846457    -0.06220
C1301       C  0.39165448  0.40941891  0.55776026    -0.00280
C1302       C  0.41486273  0.42966636  0.58613524    -0.08750
C1303       C  0.43501824  0.48212599  0.59511505     0.61630
H1304       H  0.43656714  0.41497150  0.62917898     0.12320
H1305       H  0.36838693  0.35095381  0.52578443     0.12340
C1306       C  0.35611592  0.27844298  0.55997822     0.61860
F1307       F  0.48434711  0.50394451  0.60038867    -0.23300
F1308       F  0.41412499  0.48482153  0.62179739    -0.20630
F1309       F  0.42707986  0.50714693  0.57258197    -0.20310
F1310       F  0.31290370  0.25395452  0.57507275    -0.20360
F1311       F  0.38360604  0.25788937  0.56602331    -0.20680
F1312       F  0.34538920  0.27142376  0.52901025    -0.23360
C1313       C  0.20043346  0.45804058  0.61671981    -0.06190
C1314       C  0.24464157  0.46628816  0.60586880    -0.00270
C1315       C  0.28297505  0.48012398  0.62709317    -0.08840
C1316       C  0.27220272  0.46863934  0.65802073    -0.06220
C1317       C  0.22554703  0.45330910  0.66833156    -0.00280
C1318       C  0.19318299  0.45788848  0.64833730    -0.08750
C1319       C  0.16540535  0.48135168  0.65941183     0.61630
H1320       H  0.17278904  0.45429192  0.60062222     0.12320
H1321       H  0.29992434  0.47259951  0.67410230     0.12340
C1322       C  0.33407602  0.51216519  0.61711165     0.61860
F1323       F  0.12416445  0.46622253  0.64168706    -0.23300
F1324       F  0.19442195  0.53099622  0.65684783    -0.20630
F1325       F  0.15314658  0.47199750  0.68953689    -0.20310
F1326       F  0.33869286  0.55440082  0.60589493    -0.20360
F1327       F  0.34435032  0.48905927  0.59424492    -0.20680
F1328       F  0.36688201  0.52468394  0.64117756    -0.23360
C1329       C  0.22340199  0.39920875  0.86346227    -0.06190
C1330       C  0.19245901  0.41618972  0.85522003    -0.00270
C1331       C  0.17258918  0.43187082  0.87862602    -0.08840
C1332       C  0.18905433  0.43467402  0.90889301    -0.06220
C1333       C  0.22270094  0.42085506  0.91662070    -0.00280
C1334       C  0.23810150  0.40007794  0.89370248    -0.08750
C1335       C  0.26727762  0.37594526  0.90071204     0.61630
H1336       H  0.23643673  0.38508169  0.84577589     0.12320
H1337       H  0.17658316  0.44894750  0.92685869     0.12340
C1338       C  0.13435627  0.44559990  0.87247016     0.61860
F1339       F  0.27240365  0.35290483  0.87524597    -0.23300
F1340       F  0.24336320  0.34096364  0.92209594    -0.20630
F1341       F  0.31326657  0.40979123  0.91125428    -0.20310
F1342       F  0.09387240  0.40672288  0.85876872    -0.20360
F1343       F  0.15218245  0.48505366  0.85379603    -0.20680
F1344       F  0.11971223  0.45780324  0.89904163    -0.23360
C1345       C  0.02835083  0.26620193  0.55430571    -0.06190
C1346       C  0.00786676  0.29591963  0.55071970    -0.00270
C1347       C  0.03626300  0.34114396  0.53570256    -0.08840
C1348       C  0.08145591  0.35280674  0.52451504    -0.06220
C1349       C  0.10439332  0.32667220  0.53127862    -0.00280
C1350       C  0.07644594  0.28109070  0.54517419    -0.08750
C1351       C  0.09702921  0.24846407  0.05026732     0.61630
H1352       H  0.00713721  0.23199818  0.56544568     0.12320
H1353       H  0.10126197  0.38548665  0.51169724     0.12340
C1354       C  0.02256636  0.38034156  0.53285743     0.61860
F1355       F  0.06314424  0.20450454  0.06207797    -0.23300
F1356       F  0.13612636  0.27079604  0.57049353    -0.20630
F1357       F  0.11176410  0.23911750  0.02276614    -0.20310
F1358       F  0.01392800  0.39323694  0.56122906    -0.20360
F1359       F  0.98238222  0.36421900  0.51404117    -0.20680
F1360       F  0.05889843  0.42259180  0.52054431    -0.23360
C1361       C  0.29753486  0.22751422  0.96228411    -0.06190
C1362       C  0.33785625  0.25085214  0.94324601    -0.00270
C1363       C  0.35576209  0.29988156  0.93625878    -0.08840
C1364       C  0.33565719  0.32489044  0.95054329    -0.06220
C1365       C  0.29742584  0.30295767  0.97126946    -0.00280
C1366       C  0.27675124  0.25272561  0.97636321    -0.08750
C1367       C  0.23296079  0.22581526  0.99613979     0.61630
H1368       H  0.28369025  0.18973315  0.96715932     0.12320
H1369       H  0.35161512  0.36313786  0.94628334     0.12340
C1370       C  0.39599316  0.32612634  0.91368348     0.61860
F1371       F  0.21530756  0.17636066  0.99526053    -0.23300
F1372       F  0.19649724  0.23339461  0.98589491    -0.20630
F1373       F  0.24497800  0.24218975  0.52609496    -0.20310
F1374       F  0.38665449  0.29737281  0.88766271    -0.20360
F1375       F  0.43982166  0.33676121  0.92672499    -0.20680
F1376       F  0.39991726  0.36926946  0.90491174    -0.23360
C1377       C  0.37241732  0.56332347  0.94473345    -0.06190
C1378       C  0.36395575  0.57139043  0.97496030    -0.00270
C1379       C  0.38972845  0.61859235  0.98801561    -0.08840
C1380       C  0.42681362  0.65575773  0.97110491    -0.06220
C1381       C  0.43867802  0.64623116  0.94194314    -0.00280
C1382       C  0.40900892  0.60003722  0.92780279    -0.08750
C1383       C  0.41514421  0.58694246  0.89544115     0.61630
H1384       H  0.35164280  0.52717951  0.93455200     0.12320
H1385       H  0.44965348  0.69130073  0.98171104     0.12340
C1386       C  0.37935495  0.62852639  0.52005282     0.61860
F1387       F  0.37144203  0.56757215  0.87956740    -0.23300
F1388       F  0.42872454  0.55237982  0.89622573    -0.20630
F1389       F  0.44909928  0.62636825  0.87965330    -0.20310
F1390       F  0.38874043  0.60178075  0.54050204    -0.20360
F1391       F  0.33120514  0.61530245  0.52164584    -0.20680
F1392       F  0.40743651  0.67710927  0.52849599    -0.23360
C1393       C  0.72187137  0.92217461  0.86983162    -0.06190
C1394       C  0.69573377  0.91024203  0.89698884    -0.00270
C1395       C  0.69296216  0.94733800  0.91317941    -0.08840
C1396       C  0.71222811  0.99335698  0.90054886    -0.06220
C1397       C  0.73366848  0.00399343  0.87188416    -0.00280
C1398       C  0.74071434  0.96850024  0.85678725    -0.08750
C1399       C  0.76537986  0.97834031  0.82634247     0.61630
H1400       H  0.72416694  0.89373016  0.85767774     0.12320
H1401       H  0.70758870  0.02069301  0.91226905     0.12340
C1402       C  0.66552786  0.93742099  0.94231066     0.61860
F1403       F  0.76755407  0.93877774  0.81528166    -0.23300
F1404       F  0.81220841  0.01709797  0.82962734    -0.20630
F1405       F  0.74021395  0.98902715  0.80509390    -0.20310
F1406       F  0.67592973  0.90923828  0.96086286    -0.20360
F1407       F  0.61668934  0.91372850  0.93489879    -0.20680
F1408       F  0.67760946  0.97978125  0.95846971    -0.23360
C1409       C  0.69481941  0.66692730  0.95206129    -0.06190
C1410       C  0.71205787  0.71567577  0.95863168    -0.00270
C1411       C  0.75687754  0.74311315  0.97468399    -0.08840
C1412       C  0.78437529  0.72068524  0.48194245    -0.06220
C1413       C  0.76826298  0.67204742  0.97295343    -0.00280
C1414       C  0.72302361  0.64570618  0.95646287    -0.08750
C1415       C  0.70638781  0.59761972  0.93978407     0.61630
H1416       H  0.65907524  0.64559961  0.94165098     0.12320
H1417       H  0.81829014  0.74084329  0.49466924     0.12340
C1418       C  0.77372845  0.79458274  0.48516519     0.61860
F1419       F  0.66819025  0.58501353  0.91953099    -0.23300
F1420       F  0.69113496  0.56021365  0.95993765    -0.20630
F1421       F  0.74439669  0.60226986  0.92302662    -0.20310
F1422       F  0.73937047  0.79484396  0.50376584    -0.20360
F1423       F  0.77973190  0.82264544  0.46016985    -0.20680
F1424       F  0.81716749  0.81504416  0.50147139    -0.23360
C1425       C  0.39485981  0.78631816  0.59219792    -0.06190
C1426       C  0.36276198  0.78570353  0.61372889    -0.00270
C1427       C  0.37312309  0.78336825  0.64501424    -0.08840
C1428       C  0.41503983  0.78308585  0.65392253    -0.06220
C1429       C  0.44958230  0.78990735  0.63293565    -0.00280
C1430       C  0.43870889  0.78931757  0.60135448    -0.08750
C1431       C  0.47526952  0.79693566  0.57767832     0.61630
H1432       H  0.38768477  0.78932563  0.56838695     0.12320
H1433       H  0.42451356  0.78432033  0.67786101     0.12340
C1434       C  0.34659066  0.79248042  0.66925614     0.61860
F1435       F  0.45581069  0.78902412  0.54835540    -0.23300
F1436       F  0.49193197  0.76528138  0.58212310    -0.20630
F1437       F  0.51299573  0.84424158  0.58038664    -0.20310
F1438       F  0.29746135  0.76058864  0.66516907    -0.20360
F1439       F  0.35831282  0.84018078  0.66688364    -0.20680
F1440       F  0.36040566  0.78684377  0.69814845    -0.23360
C1441       C  0.65850404  0.02572386  0.71105871    -0.06190
C1442       C  0.61106022  0.98919336  0.71490015    -0.00270
C1443       C  0.58565933  0.99162010  0.74012646    -0.08840
C1444       C  0.61190219  0.02522989  0.76400605    -0.06220
C1445       C  0.66254031  0.05521000  0.76287938    -0.00280
C1446       C  0.68588113  0.05768868  0.73473537    -0.08750
C1447       C  0.73995858  0.08954790  0.72935004     0.61630
H1448       H  0.67689389  0.02295541  0.69154595     0.12320
H1449       H  0.59317632  0.02551834  0.78431906     0.12340
C1450       C  0.53126723  0.96145178  0.74154723     0.61860
F1451       F  0.75122294  0.09045852  0.69890435    -0.23300
F1452       F  0.76557151  0.07257133  0.74523737    -0.20630
F1453       F  0.75527488  0.13648718  0.73813249    -0.20310
F1454       F  0.51809553  0.93681871  0.76846333    -0.20360
F1455       F  0.51127002  0.92843371  0.71728985    -0.20680
F1456       F  0.51256538  0.99190170  0.74070459    -0.23360
C1457       C  0.55283551  0.74491360  0.77033221    -0.06190
C1458       C  0.55122478  0.78582152  0.76182906    -0.00270
C1459       C  0.54628717  0.81490048  0.78448266    -0.08840
C1460       C  0.54931891  0.80568240  0.81534515    -0.06220
C1461       C  0.55630260  0.76786748  0.82389101    -0.00280
C1462       C  0.55578676  0.73552899  0.80117460    -0.08750
C1463       C  0.56306473  0.69399104  0.80901412     0.61630
H1464       H  0.55740597  0.72349313  0.75272872     0.12320
H1465       H  0.54964256  0.83022806  0.83282293     0.12340
C1466       C  0.54183195  0.85818617  0.77689417     0.61860
F1467       F  0.54840229  0.66038178  0.78506746    -0.23300
F1468       F  0.53618086  0.67068812  0.83411451    -0.20630
F1469       F  0.61159454  0.71162810  0.81509413    -0.20310
F1470       F  0.52440898  0.85455809  0.74737386    -0.20360
F1471       F  0.58661552  0.89998311  0.78041207    -0.20680
F1472       F  0.50981878  0.86097612  0.79647044    -0.23360
C1473       C  0.59545361  0.83550325  0.55467823    -0.06190
C1474       C  0.60129668  0.80593723  0.57570398    -0.00270
C1475       C  0.60281178  0.76489945  0.56492545    -0.08840
C1476       C  0.59825090  0.75553486  0.53336546    -0.06220
C1477       C  0.58687939  0.78235795  0.51323586    -0.00280
C1478       C  0.58221749  0.82099677  0.52449426    -0.08750
C1479       C  0.55936926  0.84414929  0.00606028     0.61630
H1480       H  0.59708275  0.86858181  0.56236155     0.12320
H1481       H  0.60154022  0.72572694  0.52429497     0.12340
C1482       C  0.60796312  0.73063462  0.58602250     0.61860
F1483       F  0.54807799  0.87280917  0.52400404    -0.23300
F1484       F  0.51703747  0.80863218  0.99177965    -0.20630
F1485       F  0.59098519  0.87323955  0.98468711    -0.20310
F1486       F  0.56878785  0.70913514  0.60499284    -0.20360
F1487       F  0.65027708  0.75604195  0.60327843    -0.20680
F1488       F  0.60966174  0.69389132  0.57005192    -0.23360
C1489       C  0.79861830  0.07265608  0.62006803    -0.06190
C1490       C  0.77763639  0.10222899  0.61928309    -0.00270
C1491       C  0.72807832  0.08120646  0.62811882    -0.08840
C1492       C  0.70226494  0.03230749  0.63551850    -0.06220
C1493       C  0.72401004  0.00458524  0.63882558    -0.00280
C1494       C  0.77233827  0.02387934  0.62986481    -0.08750
C1495       C  0.79448222  0.99206802  0.62922986     0.61630
H1496       H  0.83571787  0.08798016  0.61317114     0.12320
H1497       H  0.66405556  0.01516947  0.64007825     0.12340
C1498       C  0.70134519  0.10915054  0.63153241     0.61860
F1499       F  0.84123681  0.01650975  0.61868105    -0.23300
F1500       F  0.76691359  0.95213452  0.61010498    -0.20630
F1501       F  0.79543761  0.97645537  0.65827169    -0.20310
F1502       F  0.69516447  0.12436746  0.60340888    -0.20360
F1503       F  0.72684173  0.14837734  0.65150814    -0.20680
F1504       F  0.65572845  0.08129773  0.64342969    -0.23360
C1505       C  0.60094750  0.42815764  0.74368518    -0.06190
C1506       C  0.64360649  0.44464626  0.72777905    -0.00270
C1507       C  0.64489886  0.41435368  0.70409014    -0.08840
C1508       C  0.60078376  0.37274926  0.69398669    -0.06220
C1509       C  0.55684432  0.35947339  0.70811870    -0.00280
C1510       C  0.55806869  0.38585596  0.73489926    -0.08750
C1511       C  0.51493246  0.36958912  0.75498849     0.61630
H1512       H  0.60105408  0.44999757  0.76285632     0.12320
H1513       H  0.60004977  0.35123714  0.67444849     0.12340
C1514       C  0.69205417  0.42519764  0.68983658     0.61860
F1515       F  0.52663627  0.39661745  0.78203456    -0.23300
F1516       F  0.49774374  0.32204026  0.76249552    -0.20630
F1517       F  0.47975093  0.37456268  0.74009617    -0.20310
F1518       F  0.72356031  0.42720076  0.71238342    -0.20360
F1519       F  0.71296098  0.46893978  0.67533104    -0.20680
F1520       F  0.68517102  0.38963612  0.66859569    -0.23360
C1521       C  0.81794455  0.60083429  0.64489981    -0.06190
C1522       C  0.76959559  0.58385687  0.65203983    -0.00270
C1523       C  0.73353039  0.56339723  0.62833648    -0.08840
C1524       C  0.74801433  0.56091255  0.59847789    -0.06220
C1525       C  0.79633056  0.57644695  0.59178470    -0.00280
C1526       C  0.83219167  0.59671888  0.61564365    -0.08750
C1527       C  0.88590269  0.61670565  0.61091522     0.61630
H1528       H  0.84529170  0.61748677  0.66287664     0.12320
H1529       H  0.72127267  0.54547725  0.58004655     0.12340
C1530       C  0.68014320  0.54359091  0.63395057     0.61860
F1531       F  0.91338234  0.63583015  0.63756507    -0.23300
F1532       F  0.90230967  0.65379591  0.59060156    -0.20630
F1533       F  0.89409566  0.58062872  0.60047755    -0.20310
F1534       F  0.67343580  0.58046726  0.64445795    -0.20360
F1535       F  0.66348615  0.50753788  0.65515828    -0.20680
F1536       F  0.65199917  0.52393424  0.60761653    -0.23360
C1537       C  0.82620890  0.56589948  0.85054493    -0.06190
C1538       C  0.78293777  0.55975576  0.83858588    -0.00270
C1539       C  0.74090661  0.53748389  0.85674962    -0.08840
C1540       C  0.74617625  0.53003858  0.88791363    -0.06220
C1541       C  0.79144417  0.54273037  0.90071458    -0.00280
C1542       C  0.82992418  0.55461018  0.88078695    -0.08750
C1543       C  0.87444365  0.55341853  0.89029226     0.61630
H1544       H  0.85735161  0.57921856  0.83606001     0.12320
H1545       H  0.71551695  0.51768415  0.90269309     0.12340
C1546       C  0.69036172  0.52224736  0.84514063     0.61860
F1547       F  0.88197894  0.52570598  0.86900631    -0.23300
F1548       F  0.86909345  0.53244413  0.91834934    -0.20630
F1549       F  0.91411417  0.59992580  0.89130461    -0.20310
F1550       F  0.66028676  0.47317924  0.84955990    -0.20360
F1551       F  0.68828068  0.53042446  0.81453410    -0.20680
F1552       F  0.67300108  0.54717094  0.86149513    -0.23360
C1553       C  0.61405720  0.59499361  0.82187924    -0.06190
C1554       C  0.66499482  0.62061895  0.82269712    -0.00270
C1555       C  0.69053898  0.64667441  0.85026899    -0.08840
C1556       C  0.66373650  0.64849973  0.87407317    -0.06220
C1557       C  0.61443642  0.62997289  0.87115431    -0.00280
C1558       C  0.58820040  0.59966793  0.84598913    -0.08750
C1559       C  0.53362935  0.57039309  0.84474462     0.61630
H1560       H  0.59439064  0.57286710  0.80194724     0.12320
H1561       H  0.68246005  0.67204214  0.89348816     0.12340
C1562       C  0.74567768  0.67576757  0.85536525     0.61860
F1563       F  0.51612968  0.57998944  0.81852326    -0.23300
F1564       F  0.51400733  0.58033076  0.86972981    -0.20630
F1565       F  0.51879025  0.52160563  0.84442166    -0.20310
F1566       F  0.76654050  0.71329656  0.83512199    -0.20360
F1567       F  0.76430626  0.64560240  0.85216361    -0.20680
F1568       F  0.75973795  0.69686134  0.88434638    -0.23360
C1569       C  0.74609371  0.77327445  0.73635718    -0.06190
C1570       C  0.74141104  0.73634442  0.71619596    -0.00270
C1571       C  0.72355345  0.73424443  0.68605806    -0.08840
C1572       C  0.70388898  0.76340107  0.67885886    -0.06220
C1573       C  0.70441675  0.79714124  0.69981053    -0.00280
C1574       C  0.72784119  0.80385706  0.72867170    -0.08750
C1575       C  0.73004626  0.84029608  0.75214027     0.61630
H1576       H  0.76031065  0.77526126  0.75919052     0.12320
H1577       H  0.68611875  0.75846741  0.65683554     0.12340
C1578       C  0.72068576  0.69898442  0.66155729     0.61860
F1579       F  0.75473884  0.84148040  0.77854379    -0.23300
F1580       F  0.68371748  0.82818465  0.75986303    -0.20630
F1581       F  0.75363824  0.88621373  0.74027991    -0.20910
F1582       F  0.67458297  0.65885112  0.66086028    -0.20360
F1583       F  0.75434874  0.68492527  0.66657241    -0.20680
F1584       F  0.72970478  0.72021400  0.63333372    -0.23360
C1585       C  0.23321163  0.62765311  0.82549389    -0.06190
C1586       C  0.20957795  0.64548456  0.80750277    -0.00270
C1587       C  0.19242334  0.62438266  0.77775094    -0.08840
C1588       C  0.19745926  0.58544984  0.76806719    -0.06220
C1589       C  0.21534050  0.56361696  0.78720961    -0.00280
C1590       C  0.23609730  0.58656019  0.81624900    -0.08750
C1591       C  0.26074478  0.57043394  0.83909229     0.61630
H1592       H  0.24712691  0.64429239  0.84788028     0.12320
H1593       H  0.18371058  0.56886186  0.74567123     0.12340
C1594       C  0.16752258  0.64111483  0.75586886     0.61860
F1595       F  0.30868846  0.60667503  0.84272334    -0.23300
F1596       F  0.25959828  0.52830082  0.83081674    -0.20630
F1597       F  0.23892045  0.56349747  0.86702128    -0.20310
F1598       F  0.15637358  0.61694227  0.72777436    -0.20360
F1599       F  0.19805802  0.68928279  0.75063732    -0.20680
F1600       F  0.12470772  0.63314987  0.76784951    -0.23360
C1601       C  0.01930715  0.65920604  0.95881319    -0.06190
C1602       C  0.98620365  0.61018726  0.95436798    -0.00270
C1603       C  0.99178847  0.58440392  0.93000137    -0.08840
C1604       C  0.02481537  0.61088675  0.90720134    -0.06220
C1605       C  0.05072493  0.66204114  0.90818923    -0.00280
C1606       C  0.04905514  0.68679480  0.93547586    -0.08750
C1607       C  0.07441318  0.74177975  0.94032653     0.61630
H1608       H  0.01541259  0.67698661  0.97891531     0.12320
H1609       H  0.02824367  0.59147295  0.88783184     0.12340
C1610       C  0.96650698  0.52970100  0.92874913     0.61860
F1611       F  0.06862267  0.75542566  0.96937360    -0.23300
F1612       F  0.05584227  0.76113011  0.92005915    -0.20630
F1613       F  0.12322376  0.76215800  0.93679884    -0.20310
F1614       F  0.94222687  0.51179901  0.90111900    -0.20360
F1615       F  0.93402391  0.50916090  0.95199181    -0.20680
F1616       F  0.00078285  0.51599644  0.93160684    -0.23360
C1617       C  0.21986234  0.94306894  0.86651284    -0.06190
C1618       C  0.24397944  0.92293689  0.85083751    -0.00270
C1619       C  0.29329654  0.95307742  0.84431497    -0.08840
C1620       C  0.31807363  0.00002202  0.85716013    -0.06220
C1621       C  0.29584311  0.01888705  0.87622494    -0.00280
C1622       C  0.24502916  0.99095990  0.87920041    -0.08750
C1623       C  0.21776439  0.01074539  0.89618574     0.61630
H1624       H  0.18163272  0.91992455  0.87053824     0.12320
H1625       H  0.35652602  0.02151168  0.85343451     0.12340
C1626       C  0.32081785  0.93573697  0.82488420     0.61860
F1627       F  0.16826387  0.97907312  0.89428783    -0.23300
F1628       F  0.22738827  0.05401998  0.88367088    -0.20630
F1629       F  0.23188609  0.01848007  0.92664480    -0.20310
F1630       F  0.29302936  0.90948883  0.79957652    -0.20360
F1631       F  0.33252501  0.90703572  0.84186675    -0.20680
F1632       F  0.36341978  0.97425175  0.81452475    -0.23360
C1633       C  0.99224950  0.75111635  0.79900100    -0.06190
C1634       C  0.01844580  0.72902162  0.79024339    -0.00270
C1635       C  0.99883010  0.69288536  0.76602969    -0.08840
C1636       C  0.95163858  0.67612005  0.75499955    -0.06220
C1637       C  0.92346433  0.69437566  0.76611527    -0.00280
C1638       C  0.94497968  0.73467665  0.78734192    -0.08750
C1639       C  0.91778469  0.75839659  0.79965386     0.61630
H1640       H  0.00771723  0.77910206  0.81678558     0.12320
H1641       H  0.93518510  0.64628531  0.73840366     0.12340
C1642       C  0.02502694  0.66880578  0.75238635     0.61860
F1643       F  0.94679893  0.79818702  0.81858747    -0.23300
F1644       F  0.87931944  0.72557270  0.81648609    -0.20630
F1645       F  0.90138070  0.77442525  0.77586120    -0.20310
F1646       F  0.02216502  0.63373285  0.77160412    -0.20360
F1647       F  0.07270207  0.70281121  0.74764822    -0.20680
F1648       F  0.00500093  0.64650117  0.72433844    -0.23360
C1649       C  0.19991714  0.74332040  0.94759401    -0.06190
C1650       C  0.22497154  0.78546062  0.93062741    -0.00270
C1651       C  0.25995504  0.82940944  0.94513148    -0.08840
C1652       C  0.26617274  0.83066044  0.97689723    -0.06220
C1653       C  0.23771789  0.78981043  0.99438340    -0.00280
C1654       C  0.20457461  0.74510943  0.97964347    -0.08750
C1655       C  0.17097151  0.70118889  0.49779727     0.61630
H1656       H  0.17332659  0.71010491  0.93579819     0.12320
H1657       H  0.29044447  0.86479649  0.98865954     0.12340
C1658       C  0.28901875  0.87512260  0.92720908     0.61860
F1659       F  0.14153199  0.66124793  0.97908791    -0.23300
F1660       F  0.14161668  0.71165189  0.51513743    -0.20630
F1661       F  0.19774305  0.68919214  0.51678735    -0.20310
F1662       F  0.25849089  0.88925674  0.91484189    -0.20360
F1663       F  0.31246553  0.86626122  0.90398575    -0.20680
F1664       F  0.32357685  0.91313586  0.94536902    -0.23360
C1665       C  0.26100822  0.80862594  0.70462022    -0.06190
C1666       C  0.22696458  0.80599374  0.68370436    -0.00270
C1667       C  0.18219784  0.79783057  0.69453700    -0.08840
C1668       C  0.17103056  0.78476050  0.72526601    -0.06220
C1669       C  0.20323771  0.77953509  0.74465873    -0.00280
C1670       C  0.24982863  0.79270222  0.73412333    -0.08750
C1671       C  0.28893011  0.78772931  0.75082015     0.61630
H1672       H  0.29719714  0.82221925  0.69779571     0.12320
H1673       H  0.13801377  0.78015000  0.73454850     0.12340
C1674       C  0.14955742  0.80838811  0.67501339     0.61860
F1675       F  0.29383365  0.75212703  0.73601622    -0.23300
F1676       F  0.27989273  0.77487284  0.78049933    -0.20630
F1677       F  0.33250306  0.83117569  0.75035822    -0.20310
F1678       F  0.13042167  0.77584619  0.65072002    -0.20360
F1679       F  0.17600340  0.85484066  0.66408566    -0.20680
F1680       F  0.11155580  0.80526920  0.69139318    -0.23360
loop_ 
_geom_bond_atom_site_label_1 
_geom_bond_atom_site_label_2 
_geom_bond_distance 
_geom_bond_site_symmetry_2 
_ccdc_geom_bond_type 
O1           C16   1.289       .  A
O1           Al9   1.973       .  S
C2           O12   1.292       .  A
C2            O3   1.267       .  A
C2          C829   1.466       .  S
O3           Al5   1.854       .  S
O4            C6   1.258       .  A
O4           Al5   1.929       .  S
Al5          O13   1.961       .  S
Al5          O15   1.885       .  S
Al5          O14   1.778       .  S
C6           O19   1.251       .  A
C6          C778   1.486       .  S
O7           C17   1.268       .  A
O7           Al9   1.965       .  S
O8           C21   1.273       .  A
O8          Al18   1.948       .  S
Al9          O22   1.847       .  S
Al9          O19   1.900       .  S
Al9          O14   1.764       .  S
O10          C17   1.237       .  A
O10         Al18   1.825       .  S
O11          C20   1.240       .  A
O11         Al18   1.881       .  S
O12         Al18   1.980       .  S
O13          C20   1.253       .  A
O14         Al18   1.755       .  S
O15          C16   1.274       .  A
C16         C810   1.470       .  S
C17         C794   1.500       .  S
C20         C746   1.499       .  S
C21          O22   1.249       .  A
C21         C765   1.492       .  S
O23          C38   1.280       .  A
O23         Al31   1.966       .  S
C24          O34   1.279       .  A
C24          O25   1.275       .  A
C24         C682   1.486       .  S
O25         Al27   1.861       .  S
O26          C28   1.265       .  A
O26         Al27   1.952       .  S
Al27         O35   1.932       .  S
Al27         O37   1.895       .  S
Al27         O36   1.787       .  S
C28          O41   1.246       .  A
C28         C797   1.493       .  S
O29          C39   1.264       .  A
O29         Al31   1.931       .  S
O30          C43   1.267       .  A
O30         Al40   1.946       .  S
Al31         O44   1.788       .  S
Al31         O41   1.879       .  S
Al31         O36   1.767       .  S
O32          C39   1.257       .  A
O32         Al40   1.891       .  S
O33          C42   1.253       .  A
O33         Al40   1.884       .  S
O34         Al40   1.949       .  S
O35          C42   1.252       .  A
O36         Al40   1.774       .  S
O37          C38   1.268       .  A
C38         C698   1.479       .  S
C39         C730   1.499       .  S
C42         C666   1.493       .  S
C43          O44   1.234       .  A
C43         C714   1.477       .  S
O45          C60   1.265       .  A
O45         Al53   1.903       .  S
C46          O56   1.257       .  A
C46          O47   1.263       .  A
C46         C634   1.472       .  S
O47         Al49   1.906       .  S
O48          C50   1.264       .  A
O48         Al49   1.922       .  S
Al49         O57   1.957       .  S
Al49         O59   1.912       .  S
Al49         O58   1.785       .  S
C50          O63   1.265       .  A
C50         C733   1.491       .  S
O51          C61   1.271       .  A
O51         Al53   1.966       .  S
O52          C65   1.258       .  A
O52         Al62   1.908       .  S
Al53         O66   1.891       .  S
Al53         O63   1.923       .  S
Al53         O58   1.773       .  S
O54          C61   1.254       .  A
O54         Al62   1.885       .  S
O55          C64   1.261       .  A
O55         Al62   1.889       .  S
O56         Al62   1.844       .  S
O57          C64   1.266       .  A
O58         Al62   1.773       .  S
O59          C60   1.267       .  A
C60         C618   1.468       .  S
C61         C653   1.486   1_565  S
C64         C589   1.482       .  S
C65          O66   1.255       .  A
C65         C602   1.459       .  S
O67          C82   1.266       .  A
O67         Al75   1.914       .  S
C68          O78   1.260       .  A
C68          O69   1.267       .  A
C68        C1477   1.459       .  S
O69         Al71   1.891       .  S
O70          C72   1.264       .  A
O70         Al71   1.932       .  S
Al71         O79   1.945       .  S
Al71         O81   1.914       .  S
Al71         O80   1.775       .  S
C72          O85   1.266       .  A
C72         C554   1.500       .  S
O73          C83   1.272       .  A
O73         Al75   1.961       .  S
O74          C87   1.254       .  A
O74         Al84   1.898       .  S
Al75         O88   1.869       .  S
Al75         O85   1.925       .  S
Al75         O80   1.766       .  S
O76          C83   1.260       .  A
O76         Al84   1.906       .  S
O77          C86   1.259       .  A
O77         Al84   1.891       .  S
O78         Al84   1.881       .  S
O79          C86   1.265       .  A
O80         Al84   1.787       .  S
O81          C82   1.269       .  A
C82         C621   1.473       .  S
C83         C570   1.492       .  S
C86         C541   1.478       .  S
C87          O88   1.251       .  A
C87         C717   1.448       .  S
O89         C104   1.272       .  A
O89         Al97   1.933       .  S
C90         O100   1.263       .  A
C90          O91   1.268       .  A
C90         C493   1.481       .  S
O91         Al93   1.909       .  S
O92         C934   1.263       .  A
O92         Al93   1.892       .  S
Al93        O101   1.950       .  S
Al93        O943   1.926       .  S
Al93        O942   1.780       .  S
C94         O107   1.271       .  A
C94         O932   1.263       .  A
C94         C509   1.516       .  S
O95         C105   1.273       .  A
O95        Al937   1.983       .  S
O96         C109   1.257       .  A
O96        Al946   1.899   1_554  S
Al97        O110   1.902       .  S
Al97        O107   1.961       .  S
Al97        O935   1.983       .  S
Al97        O102   1.781       .  S
O98         C105   1.251       .  A
O98        Al106   1.850       .  S
O99         C108   1.253       .  A
O99        Al106   1.882       .  S
O100       Al106   1.916       .  S
O101        C108   1.262       .  A
O102       Al933   1.780       .  S
O102       Al946   1.772   1_554  S
O103        C104   1.273       .  A
O103       Al933   1.926       .  S
C104        C474   1.480       .  S
C105        C525   1.506       .  S
Al106       O936   1.899       .  S
Al106       O942   1.772       .  S
C108        C538   1.476       .  S
C109        O110   1.260       .  A
C109        C461   1.463       .  S
O111        C126   1.269       .  A
O111       Al119   1.914       .  S
C112        O122   1.272       .  A
C112        O113   1.278       .  A
C112       C1285   1.489       .  S
O113       Al115   1.925       .  S
O114        C116   1.243       .  A
O114       Al115   1.854       .  S
Al115       O123   1.910       .  S
Al115       O125   1.960       .  S
Al115       O124   1.790       .  S
C116        O129   1.265       .  A
C116        C650   1.510       .  S
O117        C127   1.267       .  A
O117       Al119   1.967       .  S
O118        C131   1.257       .  A
O118       Al128   1.894       .  S
Al119       O132   1.872       .  S
Al119       O129   1.959       .  S
Al119       O124   1.796       .  S
O120        C127   1.243       .  A
O120       Al128   1.855       .  S
O121        C130   1.236       .  A
O121       Al128   1.843       .  S
O122       Al128   1.904       .  S
O123        C130   1.246       .  A
O124       Al128   1.784       .  S
O125        C126   1.282       .  A
C126        C426   1.508       .  S
C127        C506   1.519   1_655  S
C130        C397   1.468       .  S
C131        O132   1.267       .  A
C131        C410   1.459       .  S
O133        C148   1.291       .  A
O133       Al141   1.972       .  S
C134        O144   1.294       .  A
C134        O135   1.281       .  A
C134        C378   1.501       .  S
O135       Al137   1.879       .  S
O136        C138   1.255       .  A
O136       Al137   1.932       .  S
Al137       O145   1.960       .  S
Al137       O147   1.921       .  S
Al137       O146   1.776       .  S
C138        O151   1.250       .  A
C138        C522   1.495       .  S
O139        C149   1.270       .  A
O139       Al141   1.971       .  S
O140        C153   1.276       .  A
O140       Al150   1.969       .  S
Al141       O154   1.829       .  S
Al141       O151   1.905       .  S
Al141       O146   1.760       .  S
O142        C149   1.246       .  A
O142       Al150   1.828       .  S
O143        C152   1.245       .  A
O143       Al150   1.900       .  S
O144       Al150   1.986       .  S
O145        C152   1.254       .  A
O146       Al150   1.753       .  S
O147        C148   1.286       .  A
C148       C1205   1.489       .  S
C149        C781   1.507       .  S
C152        C330   1.503       .  S
C153        O154   1.244       .  A
C153        C346   1.495       .  S
O155        C170   1.282       .  A
O155       Al163   1.945       .  S
C156        O166   1.278       .  A
C156        O157   1.281       .  A
C156        C442   1.483       .  S
O157       Al159   1.883       .  S
O158        C160   1.258       .  A
O158       Al159   1.947       .  S
Al159       O167   1.929       .  S
Al159       O169   1.923       .  S
Al159       O168   1.786       .  S
C160        O173   1.248       .  A
C160        C314   1.489       .  S
O161        C171   1.260       .  A
O161       Al163   1.930       .  S
O162        C175   1.268       .  A
O162       Al172   1.935       .  S
Al163       O176   1.838       .  S
Al163       O173   1.892       .  S
Al163       O168   1.776       .  S
O164        C171   1.256       .  A
O164       Al172   1.885       .  S
O165        C174   1.253       .  A
O165       Al172   1.902       .  S
O166       Al172   1.934       .  S
O167        C174   1.250       .  A
O168       Al172   1.776       .  S
O169        C170   1.277       .  A
C170        C429   1.484       .  S
C171        C557   1.501       .  S
C174        C333   1.501       .  S
C175        O176   1.247       .  A
C175        C605   1.484       .  S
O177        C192   1.278       .  A
O177       Al185   1.916       .  S
C178        O188   1.281       .  A
C178        O179   1.275       .  A
C178        C826   1.479       .  S
O179       Al181   1.905       .  S
O180        C182   1.251       .  A
O180       Al181   1.911       .  S
Al181       O189   1.958       .  S
Al181       O191   1.923       .  S
Al181       O190   1.783       .  S
C182        O195   1.256       .  A
C182        C282   1.504       .  S
O183        C193   1.266       .  A
O183       Al185   1.936       .  S
O184        C197   1.257       .  A
O184       Al194   1.913       .  S
Al185       O198   1.860       .  S
Al185       O195   1.926       .  S
Al185       O190   1.770       .  S
O186        C193   1.248       .  A
O186       Al194   1.857       .  S
O187        C196   1.244       .  A
O187       Al194   1.893       .  S
O188       Al194   1.931       .  S
O189        C196   1.256       .  A
O190       Al194   1.776       .  S
O191        C192   1.283       .  A
C192       C1653   1.472   1_554  S
C193        C301   1.494       .  S
C196        C586   1.498       .  S
C197        O198   1.259       .  A
C197        C349   1.467       .  S
O199        C214   1.290       .  A
O199       Al207   1.986       .  S
C200        O210   1.278       .  A
C200        O201   1.283       .  A
C200        C490   1.486       .  S
O201       Al203   1.889       .  S
O202        C204   1.256       .  A
O202       Al203   1.947       .  S
Al203       O211   1.933       .  S
Al203       O213   1.903       .  S
Al203       O212   1.794       .  S
C204        O217   1.245       .  A
C204        C266   1.485       .  S
O205        C215   1.268       .  A
O205       Al207   1.948       .  S
O206        C219   1.266       .  A
O206       Al216   1.939       .  S
Al207       O220   1.824       .  S
Al207       O217   1.893       .  S
Al207       O212   1.763       .  S
O208        C215   1.252       .  A
O208       Al216   1.867       .  S
O209        C218   1.253       .  A
O209       Al216   1.878       .  S
O210       Al216   1.930       .  S
O211        C218   1.250       .  A
O212       Al216   1.767       .  S
O213        C214   1.274       .  A
C214        C477   1.490       .  S
C215        C317   1.496       .  S
C218        C749   1.492       .  S
C219        O220   1.241       .  A
C219        C413   1.485       .  S
O221        C236   1.272       .  A
O221       Al229   1.921       .  S
C222        O232   1.265       .  A
C222        O223   1.271       .  A
C222        C685   1.483       .  S
O223       Al225   1.910   1_554  S
O224        C226   1.253       .  A
O224       Al225   1.886       .  S
Al225       O233   1.929   1_556  S
Al225      O1075   1.939       .  S
Al225       O234   1.785       .  S
C226       O1079   1.270       .  A
C226       C1413   1.515       .  S
O227        C237   1.270       .  A
O227      Al1069   1.968   1_554  S
O228        C241   1.254       .  A
O228      Al1078   1.899       .  S
Al229       O242   1.879       .  S
Al229       O239   1.967       .  S
Al229      O1067   1.968       .  S
Al229      O1074   1.784       .  S
O230        C237   1.254       .  A
O230       Al238   1.852       .  S
O231        C240   1.252       .  A
O231       Al238   1.885       .  S
O232       Al238   1.917       .  S
O233        C240   1.256       .  A
O234       Al238   1.777   1_556  S
O234      Al1069   1.784       .  S
O235        C236   1.276       .  A
O235      Al1065   1.939       .  S
C236        C701   1.489       .  S
C237        C285   1.508       .  S
Al238      O1068   1.899   1_554  S
O239       C1066   1.270       .  A
C240        C394   1.471       .  S
C241        O242   1.257       .  A
C241        C762   1.460       .  S
O243        C258   1.278       .  A
O243       Al251   1.956       .  S
C244        O254   1.280       .  A
C244        O245   1.270       .  A
C244        C381   1.496       .  S
O245       Al247   1.875       .  S
O246        C248   1.266       .  A
O246       Al247   1.947       .  S
Al247       O255   1.968       .  S
Al247       O257   1.922       .  S
Al247       O256   1.785       .  S
C248        O261   1.253       .  A
C248        C298   1.489       .  S
O249        C259   1.264       .  A
O249       Al251   1.951       .  S
O250        C263   1.271       .  A
O250       Al260   1.942       .  S
Al251       O264   1.819       .  S
Al251       O261   1.892       .  S
Al251       O256   1.774       .  S
O252        C259   1.245       .  A
O252       Al260   1.853       .  S
O253        C262   1.247       .  A
O253       Al260   1.885       .  S
O254       Al260   1.958       .  S
O255        C262   1.261       .  A
O256       Al260   1.765       .  S
O257        C258   1.274       .  A
C258        C362   1.486       .  S
C259        C269   1.486       .  S
C262        C669   1.497       .  S
C263        O264   1.242       .  A
C263        C458   1.484       .  S
C265        C266   1.404       .  A
C265        C270   1.409       .  A
C265        H272   1.083       .  S
C266        C267   1.412       .  A
C267        C268   1.414       .  A
C267        C274   1.515       .  S
C268        C269   1.410       .  A
C268        H273   1.082       .  S
C269        C270   1.418       .  A
C270        C271   1.517       .  S
C271        F275   1.385       .  S
C271        F276   1.383       .  S
C271        F277   1.379       .  S
C274        F278   1.383       .  S
C274        F279   1.383       .  S
C274        F280   1.384       .  S
C281        C282   1.415       .  A
C281        C286   1.424       .  A
C281        H288   1.083       .  S
C282        C283   1.422       .  A
C283        C284   1.403       .  A
C283        C290   1.526       .  S
C284        C285   1.411   1_455  A
C284        H289   1.082   1_455  S
C285        C286   1.418   1_655  A
C286        C287   1.515       .  S
C287        F291   1.384       .  S
C287        F292   1.383   1_455  S
C287        F293   1.382   1_454  S
C290        F294   1.379       .  S
C290        F295   1.382       .  S
C290        F296   1.385       .  S
C297        C298   1.399       .  A
C297        C302   1.404       .  A
C297        H304   1.084       .  S
C298        C299   1.425       .  A
C299        C300   1.411       .  A
C299        C306   1.518       .  S
C300        C301   1.403   1_545  A
C300        H305   1.082   1_545  S
C301        C302   1.428   1_565  A
C302        C303   1.520   1_545  S
C303        F307   1.385       .  S
C303        F308   1.383       .  S
C303        F309   1.383       .  S
C306        F310   1.381       .  S
C306        F311   1.383       .  S
C306        F312   1.385       .  S
C313        C314   1.408       .  A
C313        C318   1.414       .  A
C313        H320   1.083       .  S
C314        C315   1.410       .  A
C315        C316   1.412   1_655  A
C315        C322   1.516       .  S
C316        C317   1.412       .  A
C316        H321   1.081       .  S
C317        C318   1.417   1_455  A
C318        C319   1.517       .  S
C319        F323   1.385       .  S
C319        F324   1.383   1_655  S
C319        F325   1.382       .  S
C322        F326   1.384       .  S
C322        F327   1.382       .  S
C322        F328   1.384   1_655  S
C329        C330   1.400       .  A
C329        C334   1.418       .  A
C329        H336   1.085       .  S
C330        C331   1.422       .  A
C331        C332   1.408       .  A
C331        C338   1.504       .  S
C332        C333   1.398       .  A
C332        H337   1.084       .  S
C333        C334   1.434       .  A
C334        C335   1.517       .  S
C335        F339   1.381       .  S
C335        F340   1.374       .  S
C335        F341   1.383       .  S
C338        F342   1.381       .  S
C338        F343   1.374       .  S
C338        F344   1.385       .  S
C345        C346   1.413       .  A
C345       C1190   1.419   1_545  A
C345        H352   1.083       .  S
C346        C347   1.444       .  A
C347       C1188   1.387       .  A
C347        C354   1.537       .  S
C348        C349   1.385   1_545  A
C348       C1187   1.387       .  A
C348        H353   1.085       .  S
C349        C350   1.410       .  A
C350       C1185   1.419   1_564  A
C350        C351   1.512       .  S
C351        F355   1.384   1_554  S
C351        F356   1.382       .  S
C351        F357   1.383       .  S
C354        F358   1.384       .  S
C354        F359   1.374       .  S
C354       F1200   1.386       .  S
F360       C1194   1.386       .  S
C361        C362   1.406       .  A
C361        C366   1.416       .  A
C361        H368   1.083       .  S
C362        C363   1.411       .  A
C363        C364   1.410       .  A
C363        C370   1.515       .  S
C364        C365   1.405       .  A
C364        H369   1.082       .  S
C365        C988   1.490   1_554  S
C365        C366   1.416       .  A
C366        C367   1.516       .  S
C367        F371   1.384       .  S
C367       F1212   1.383   1_554  S
C367       F1213   1.383   1_554  S
C370        F374   1.383       .  S
C370        F375   1.383       .  S
C370        F376   1.382       .  S
F372       C1207   1.383       .  S
F373       C1207   1.383       .  S
C377        C378   1.412       .  A
C377        C382   1.405       .  A
C377        H384   1.083       .  S
C378        C379   1.422       .  A
C379        C380   1.404       .  A
C379        C386   1.514       .  S
C380        C381   1.408       .  A
C380        H385   1.082       .  S
C381        C382   1.419       .  A
C382        C383   1.519       .  S
C383        F387   1.385       .  S
C383        F388   1.377       .  S
C383        F389   1.380       .  S
C386        F390   1.377       .  S
C386        F391   1.376       .  S
C386        F392   1.385       .  S
C393        C394   1.407       .  A
C393        C398   1.409       .  A
C393        H400   1.084       .  S
C394        C395   1.409       .  A
C395        C396   1.405       .  A
C395       C1242   1.516   1_554  S
C396        C397   1.405       .  A
C396        H401   1.084       .  S
C397        C398   1.409       .  A
C398        C399   1.516       .  S
C399        F403   1.385       .  S
C399        F404   1.383       .  S
C399        F405   1.383       .  S
C402       C1235   1.516       .  S
C402        F406   1.382       .  S
C402        F407   1.383       .  S
C402        F408   1.383       .  S
C409        C410   1.386   1_455  A
C409        C414   1.390       .  A
C409        H416   1.083       .  S
C410        C411   1.406       .  A
C411        C412   1.413   1_655  A
C411        C418   1.513       .  S
C412        C413   1.412       .  A
C412        H417   1.083       .  S
C413        C414   1.438       .  A
C414        C415   1.531       .  S
C415        F419   1.384       .  S
C415        F420   1.374       .  S
C415        F421   1.385       .  S
C418        F422   1.383       .  S
C418        F423   1.383       .  S
C418        F424   1.384       .  S
C425        C426   1.411       .  A
C425        C430   1.423       .  A
C425        H432   1.082       .  S
C426        C427   1.430       .  A
C427        C428   1.399       .  A
C427        C434   1.512       .  S
C428        C429   1.391       .  A
C428        H433   1.085       .  S
C429        C430   1.419       .  A
C430        C431   1.515       .  S
C431        F435   1.384       .  S
C431        F436   1.383       .  S
C431        F437   1.381       .  S
C434        F438   1.370       .  S
C434        F439   1.382       .  S
C434        F440   1.386       .  S
C441        C442   1.397       .  A
C441        C446   1.393       .  A
C441        H448   1.083       .  S
C442        C443   1.423       .  A
C443        C444   1.413       .  A
C443        C450   1.521       .  S
C444        C445   1.406       .  A
C444       H1289   1.083       .  S
C445        C952   1.489       .  S
C445        C446   1.423       .  A
C446        C447   1.513       .  S
C447        F451   1.385       .  S
C447        F453   1.377       .  S
C447       F1292   1.380       .  S
H449       C1284   1.083   1_554  S
C450        F454   1.383       .  S
C450        F455   1.381       .  S
C450        F456   1.385       .  S
F452       C1287   1.380   1_554  S
C457        C458   1.404       .  A
C457        C462   1.401       .  A
C457        H464   1.084       .  S
C458        C459   1.439       .  A
C459        C460   1.396       .  A
C459        C466   1.528       .  S
C460        C461   1.389       .  A
C460        H465   1.084       .  S
C461        C462   1.408       .  A
C462        C463   1.504       .  S
C463        F467   1.382       .  S
C463        F468   1.379       .  S
C463        F469   1.384       .  S
C466        F470   1.383       .  S
C466        F471   1.370       .  S
C466        F472   1.383       .  S
C473        C474   1.397       .  A
C473        C478   1.409       .  A
C473        H480   1.084       .  S
C474        C475   1.407       .  A
C475        C476   1.412       .  A
C475        C482   1.503       .  S
C476        C477   1.403       .  A
C476        H481   1.083       .  S
C477        C478   1.417       .  A
C478        C479   1.509       .  S
C479        F483   1.379       .  S
C479        F484   1.383       .  S
C479        F485   1.378       .  S
C482        F486   1.384       .  S
C482        F487   1.376       .  S
C482        F488   1.383       .  S
C489        C490   1.401       .  A
C489        C494   1.397       .  A
C489        H496   1.082       .  S
C490        C491   1.428       .  A
C491        C492   1.407       .  A
C491        C498   1.524       .  S
C492        C493   1.401       .  A
C492        H497   1.083       .  S
C493        C494   1.422       .  A
C494        C495   1.520       .  S
C495        F499   1.385       .  S
C495        F500   1.380       .  S
C495        F501   1.381       .  S
C498        F502   1.382       .  S
C498        F503   1.381       .  S
C498        F504   1.385       .  S
C505        C506   1.416       .  A
C505        C510   1.431       .  A
C505        H512   1.082       .  S
C506        C507   1.438       .  A
C507        C508   1.400       .  A
C507        C514   1.534       .  S
C508        C509   1.401       .  A
C508        H513   1.081       .  S
C509        C510   1.422       .  A
C510       C1351   1.513       .  S
C511       C1350   1.513       .  S
C511        F515   1.384       .  S
C511        F517   1.384       .  S
C511       F1356   1.382       .  S
C514        F518   1.380       .  S
C514        F519   1.376   1_455  S
C514        F520   1.386       .  S
F516       C1351   1.382       .  S
C521        C522   1.413       .  A
C521        C526   1.422       .  A
C521        H528   1.083       .  S
C522        C523   1.412       .  A
C523        C524   1.404       .  A
C523        C530   1.521       .  S
C524        C525   1.414       .  A
C524        H529   1.082       .  S
C525        C526   1.418       .  A
C526        C527   1.516       .  S
C527        F531   1.385       .  S
C527        F532   1.383       .  S
C527       F1373   1.381       .  S
C530        F534   1.384       .  S
C530        F535   1.382       .  S
C530        F536   1.385       .  S
F533       C1367   1.381   1_554  S
C537        C538   1.402       .  A
C537        C542   1.401       .  A
C537        H544   1.083       .  S
C538        C539   1.409       .  A
C539        C540   1.413       .  A
C539       C1386   1.514       .  S
C540        C541   1.411       .  A
C540        H545   1.084       .  S
C541        C542   1.415       .  A
C542        C543   1.517       .  S
C543        F547   1.384       .  S
C543        F548   1.382       .  S
C543        F549   1.383       .  S
C546       C1379   1.514   1_554  S
C546        F550   1.383       .  S
C546        F551   1.383       .  S
C546        F552   1.384       .  S
C553        C554   1.409       .  A
C553        C558   1.422       .  A
C553        H560   1.083       .  S
C554        C555   1.416       .  A
C555        C556   1.405       .  A
C555        C562   1.506       .  S
C556        C557   1.403   1_565  A
C556        H561   1.083   1_565  S
C557        C558   1.422   1_545  A
C558        C559   1.516       .  S
C559        F563   1.384       .  S
C559        F564   1.383   1_565  S
C559        F565   1.383       .  S
C562        F566   1.384       .  S
C562        F567   1.382       .  S
C562        F568   1.385       .  S
C569        C570   1.389       .  A
C569        C574   1.396       .  A
C569        H576   1.082       .  S
C570        C571   1.416       .  A
C571       C1412   1.430       .  A
C571       C1418   1.511       .  S
C572       C1411   1.430       .  A
C572       C1413   1.416       .  A
C572        H577   1.082       .  S
C573       C1066   1.515       .  S
C573        C574   1.432       .  A
C573       C1412   1.416       .  A
C574        C575   1.519       .  S
C575        F579   1.383       .  S
C575        F580   1.381       .  S
C575        F581   1.376       .  S
C578       C1411   1.511       .  S
C578        F582   1.384   1_556  S
C578        F583   1.382       .  S
C578        F584   1.384   1_556  S
C585        C586   1.400       .  A
C585        C590   1.415       .  A
C585        H592   1.083       .  S
C586        C587   1.420       .  A
C587        C588   1.402       .  A
C587        C594   1.486       .  S
C588        C589   1.383       .  A
C588        H593   1.084       .  S
C589        C590   1.422       .  A
C590        C591   1.505       .  S
C591        F595   1.384       .  S
C591        F596   1.382       .  S
C591        F597   1.379       .  S
C594        F598   1.383       .  S
C594        F599   1.382       .  S
C594        F600   1.382       .  S
C601        C602   1.385   1_545  A
C601        C606   1.387       .  A
C601        H608   1.074       .  S
C602        C603   1.407       .  A
C603        C604   1.408   1_565  A
C603        C610   1.509       .  S
C604        C605   1.409       .  A
C604        H609   1.084       .  S
C605        C606   1.435       .  A
C606        C607   1.526       .  S
C607        F611   1.385       .  S
C607        F612   1.383       .  S
C607        F613   1.369       .  S
C610        F614   1.379       .  S
C610        F615   1.384       .  S
C610        F616   1.383       .  S
C617        C618   1.395       .  A
C617        C622   1.403       .  A
C617        H624   1.084       .  S
C618        C619   1.415       .  A
C619        C620   1.403       .  A
C619        C626   1.507       .  S
C620        C621   1.396       .  A
C620        H625   1.085       .  S
C621        C622   1.419       .  A
C622        C623   1.509       .  S
C623        F627   1.384       .  S
C623        F628   1.383       .  S
C623        F629   1.381       .  S
C626        F630   1.383       .  S
C626        F631   1.383       .  S
C626        F632   1.384       .  S
C633        C634   1.411       .  A
C633        C638   1.383       .  A
C633        H640   1.082       .  S
C634        C635   1.414       .  A
C635        C636   1.401       .  A
C635        C642   1.519       .  S
C636        C637   1.411       .  A
C636        H641   1.083       .  S
C637        C908   1.459   1_554  S
C637        C638   1.403       .  A
C638       C1479   1.518       .  S
C639       C1478   1.518       .  S
C639        F644   1.384       .  S
C639        F645   1.367       .  S
C639       F1483   1.384       .  S
C642        F646   1.384       .  S
C642        F647   1.382       .  S
C642        F648   1.385       .  S
F643       C1479   1.384       .  S
C649        C650   1.416       .  A
C649        C654   1.425       .  A
C649        H656   1.082       .  S
C650        C651   1.439       .  A
C651        C652   1.396       .  A
C651        C658   1.531       .  S
C652        C653   1.390       .  A
C652        H657   1.083       .  S
C653        C654   1.412       .  A
C654        C655   1.511   1_545  S
C655        F659   1.384   1_565  S
C655        F660   1.384       .  S
C655        F661   1.382       .  S
C658        F662   1.383       .  S
C658        F663   1.383       .  S
C658        F664   1.386       .  S
C665        C666   1.394       .  A
C665        C670   1.397       .  A
C665        H672   1.083       .  S
C666        C667   1.425       .  A
C667        C668   1.422       .  A
C667        C674   1.517       .  S
C668        C669   1.406       .  A
C668        H673   1.083       .  S
C669        C670   1.423       .  A
C670        C671   1.510       .  S
C671        F675   1.386       .  S
C671        F676   1.379       .  S
C671        F677   1.378       .  S
C674        F678   1.383       .  S
C674        F679   1.380       .  S
C674        F680   1.384       .  S
C681        C682   1.402       .  A
C681        C686   1.394       .  A
C681        H688   1.081       .  S
C682        C683   1.423       .  A
C683        C684   1.410       .  A
C683        C690   1.521       .  S
C684        C685   1.405       .  A
C684        H689   1.083       .  S
C685        C686   1.424       .  A
C686        C687   1.523       .  S
C687        F691   1.386       .  S
C687        F692   1.377       .  S
C687        F693   1.382       .  S
C690        F694   1.378       .  S
C690        F695   1.381       .  S
C690        F696   1.385       .  S
C697        C698   1.395       .  A
C697        C702   1.401       .  A
C697        H704   1.085       .  S
C698        C699   1.426       .  A
C699        C700   1.415       .  A
C699        C706   1.516       .  S
C700        C701   1.402       .  A
C700        H705   1.084       .  S
C701        C702   1.413       .  A
C702        C703   1.504       .  S
C703        F707   1.384       .  S
C703        F708   1.383       .  S
C703        F709   1.382       .  S
C706        F710   1.383       .  S
C706        F711   1.380       .  S
C706        F712   1.381       .  S
C713        C714   1.408       .  A
C713        C718   1.405       .  A
C713        H720   1.084       .  S
C714        C715   1.441       .  A
C715        C716   1.381       .  A
C715        C722   1.536       .  S
C716        C717   1.383       .  A
C716        H721   1.076       .  S
C717        C718   1.406       .  A
C718        C719   1.509       .  S
C719        F723   1.381       .  S
C719        F724   1.382       .  S
C719        F725   1.383       .  S
C722        F726   1.384       .  S
C722        F727   1.378       .  S
C722        F728   1.386       .  S
C729        C730   1.408       .  A
C729        C734   1.418       .  A
C729        H736   1.083       .  S
C730        C731   1.421       .  A
C731        C732   1.406       .  A
C731        C738   1.513       .  S
C732        C733   1.400       .  A
C732        H737   1.083       .  S
C733        C734   1.420       .  A
C734        C735   1.516       .  S
C735        F739   1.385       .  S
C735        F740   1.382       .  S
C735        F741   1.383       .  S
C738        F742   1.381       .  S
C738        F743   1.384       .  S
C738        F744   1.385       .  S
C745        C746   1.403       .  A
C745        C750   1.419       .  A
C745        H752   1.085       .  S
C746        C747   1.427       .  A
C747        C748   1.397       .  A
C747        C754   1.511       .  S
C748        C749   1.394       .  A
C748        H753   1.084       .  S
C749        C750   1.433       .  A
C750        C751   1.521       .  S
C751        F755   1.383       .  S
C751        F756   1.374       .  S
C751        F757   1.383       .  S
C754        F758   1.386       .  S
C754        F759   1.369       .  S
C754        F760   1.378       .  S
C761        C762   1.386   1_455  A
C761        C766   1.392       .  A
C761        H768   1.084       .  S
C762        C763   1.408       .  A
C763        C764   1.409   1_655  A
C763        C770   1.510       .  S
C764        C765   1.410       .  A
C764        H769   1.084       .  S
C765        C766   1.441       .  A
C766        C767   1.528       .  S
C767        F771   1.385       .  S
C767        F772   1.383       .  S
C767        F773   1.370       .  S
C770        F774   1.379       .  S
C770        F775   1.383       .  S
C770        F776   1.383   1_655  S
C777        C778   1.413       .  A
C777        C782   1.419       .  A
C777        H784   1.083       .  S
C778        C779   1.410       .  A
C779        C780   1.398   1_565  A
C779        C786   1.523       .  S
C780        C781   1.418       .  A
C780        H785   1.082       .  S
C781        C782   1.416   1_545  A
C782        C783   1.513   1_565  S
C783        F787   1.384   1_545  S
C783        F788   1.384       .  S
C783        F789   1.382       .  S
C786        F790   1.384       .  S
C786        F791   1.383       .  S
C786        F792   1.385       .  S
C793        C794   1.401   1_655  A
C793        C798   1.415       .  A
C793        H800   1.082   1_655  S
C794        C795   1.436   1_455  A
C795        C796   1.402       .  A
C795        C802   1.523   1_655  S
C796        C797   1.393       .  A
C796        H801   1.084       .  S
C797        C798   1.430       .  A
C798        C799   1.519       .  S
C799        F803   1.385       .  S
C799        F804   1.380       .  S
C799        F805   1.383       .  S
C802        F806   1.383       .  S
C802        F807   1.376       .  S
C802        F808   1.385       .  S
C809        C810   1.403       .  A
C809        C814   1.409       .  A
C809        H816   1.084       .  S
C810        C811   1.411       .  A
C811        C812   1.402       .  A
C811        C818   1.517       .  S
C812        C813   1.404       .  A
C812        H817   1.083       .  S
C813       C1032   1.472       .  S
C813        C814   1.415       .  A
C814       C1655   1.515       .  S
C815       C1654   1.515       .  S
C815        F820   1.382   1_556  S
C815        F821   1.383   1_556  S
C815       F1659   1.385       .  S
C818        F822   1.382       .  S
C818        F823   1.383       .  S
C818        F824   1.385       .  S
F819       C1655   1.385       .  S
C825        C826   1.387       .  A
C825        C830   1.383       .  A
C825        H832   1.062       .  S
C826        C827   1.415       .  A
C827        C828   1.414       .  A
C827        C834   1.515       .  S
C828        C829   1.408       .  A
C828        H833   1.080       .  S
C829        C830   1.419       .  A
C830        C831   1.525       .  S
C831        F835   1.381       .  S
C831        F836   1.362       .  S
C831        F837   1.384       .  S
C834        F838   1.376       .  S
C834        F839   1.384       .  S
C834        F840   1.384       .  S
O841        C856   1.289       .  A
O841       Al849   1.973       .  S
C842        O852   1.292       .  A
C842        O843   1.267       .  A
C842       C1669   1.466       .  S
O843       Al845   1.854       .  S
O844        C846   1.258       .  A
O844       Al845   1.929       .  S
Al845       O853   1.961       .  S
Al845       O855   1.885       .  S
Al845       O854   1.778       .  S
C846        O859   1.251       .  A
C846       C1618   1.486       .  S
O847        C857   1.268       .  A
O847       Al849   1.965       .  S
O848        C861   1.273       .  A
O848       Al858   1.948       .  S
Al849       O862   1.847       .  S
Al849       O859   1.900       .  S
Al849       O854   1.764       .  S
O850        C857   1.237       .  A
O850       Al858   1.825       .  S
O851        C860   1.240       .  A
O851       Al858   1.881       .  S
O852       Al858   1.980       .  S
O853        C860   1.253       .  A
O854       Al858   1.755       .  S
O855        C856   1.274       .  A
C856       C1650   1.470       .  S
C857       C1634   1.500       .  S
C860       C1586   1.499       .  S
C861        O862   1.249       .  A
C861       C1605   1.492       .  S
O863        C878   1.280       .  A
O863       Al871   1.966       .  S
C864        O874   1.279       .  A
C864        O865   1.275       .  A
C864       C1522   1.486       .  S
O865       Al867   1.861       .  S
O866        C868   1.265       .  A
O866       Al867   1.952       .  S
Al867       O875   1.932       .  S
Al867       O877   1.895       .  S
Al867       O876   1.787       .  S
C868        O881   1.246       .  A
C868       C1637   1.493       .  S
O869        C879   1.264       .  A
O869       Al871   1.931       .  S
O870        C883   1.267       .  A
O870       Al880   1.946       .  S
Al871       O884   1.788       .  S
Al871       O881   1.879       .  S
Al871       O876   1.767       .  S
O872        C879   1.257       .  A
O872       Al880   1.891       .  S
O873        C882   1.253       .  A
O873       Al880   1.884       .  S
O874       Al880   1.949       .  S
O875        C882   1.252       .  A
O876       Al880   1.774       .  S
O877        C878   1.268       .  A
C878       C1538   1.479       .  S
C879       C1570   1.499       .  S
C882       C1506   1.493       .  S
C883        O884   1.234       .  A
C883       C1554   1.477       .  S
O885        C900   1.265       .  A
O885       Al893   1.903       .  S
C886        O896   1.257       .  A
C886        O887   1.263       .  A
C886       C1474   1.472       .  S
O887       Al889   1.906       .  S
O888        C890   1.264       .  A
O888       Al889   1.922       .  S
Al889       O897   1.957       .  S
Al889       O899   1.912       .  S
Al889       O898   1.785       .  S
C890        O903   1.265       .  A
C890       C1573   1.491       .  S
O891        C901   1.271       .  A
O891       Al893   1.966       .  S
O892        C905   1.258       .  A
O892       Al902   1.908       .  S
Al893       O906   1.891       .  S
Al893       O903   1.923       .  S
Al893       O898   1.773       .  S
O894        C901   1.254       .  A
O894       Al902   1.885       .  S
O895        C904   1.261       .  A
O895       Al902   1.889       .  S
O896       Al902   1.844       .  S
O897        C904   1.266       .  A
O898       Al902   1.773       .  S
O899        C900   1.267       .  A
C900       C1458   1.468       .  S
C901       C1493   1.486   1_565  S
C904       C1429   1.482       .  S
C905        O906   1.255       .  A
C905       C1442   1.459       .  S
O907        C922   1.266       .  A
O907       Al915   1.914       .  S
C908        O918   1.260       .  A
C908        O909   1.267       .  A
O909       Al911   1.891       .  S
O910        C912   1.264       .  A
O910       Al911   1.932       .  S
Al911       O919   1.945       .  S
Al911       O921   1.914       .  S
Al911       O920   1.775       .  S
C912        O925   1.266       .  A
C912       C1394   1.500       .  S
O913        C923   1.272       .  A
O913       Al915   1.961       .  S
O914        C927   1.254       .  A
O914       Al924   1.898       .  S
Al915       O928   1.869       .  S
Al915       O925   1.925       .  S
Al915       O920   1.766       .  S
O916        C923   1.260       .  A
O916       Al924   1.906       .  S
O917        C926   1.259       .  A
O917       Al924   1.891       .  S
O918       Al924   1.881       .  S
O919        C926   1.265       .  A
O920       Al924   1.787       .  S
O921        C922   1.269       .  A
C922       C1461   1.473       .  S
C923       C1410   1.492       .  S
C926       C1381   1.478       .  S
C927        O928   1.251       .  A
C927       C1557   1.448       .  S
O929        C944   1.272       .  A
O929       Al937   1.933       .  S
C930        O940   1.263       .  A
C930        O931   1.268       .  A
C930       C1333   1.481       .  S
O931       Al933   1.909   1_556  S
O932       Al933   1.892       .  S
Al933       O941   1.950   1_554  S
C934        O947   1.271       .  A
C934       C1349   1.516       .  S
O935        C945   1.273   1_554  A
O936        C949   1.257       .  A
Al937       O950   1.902       .  S
Al937       O947   1.961       .  S
Al937       O942   1.781       .  S
O938        C945   1.251       .  A
O938       Al946   1.850       .  S
O939        C948   1.253   1_554  A
O939       Al946   1.882   1_554  S
O940       Al946   1.916       .  S
O941        C948   1.262       .  A
O943        C944   1.273       .  A
C944       C1314   1.480       .  S
C945       C1365   1.506       .  S
C948       C1378   1.476       .  S
C949        O950   1.260       .  A
C949       C1301   1.463       .  S
O951        C966   1.269       .  A
O951       Al959   1.914       .  S
C952        O962   1.272       .  A
C952        O953   1.278       .  A
O953       Al955   1.926       .  S
O954        C956   1.243       .  A
O954       Al955   1.854       .  S
Al955       O963   1.910       .  S
Al955       O965   1.960       .  S
Al955       O964   1.790       .  S
C956        O969   1.265       .  A
C956       C1490   1.510       .  S
O957        C967   1.267       .  A
O957       Al959   1.967       .  S
O958        C971   1.257       .  A
O958       Al968   1.894       .  S
Al959       O972   1.872       .  S
Al959       O969   1.959       .  S
Al959       O964   1.796       .  S
O960        C967   1.243       .  A
O960       Al968   1.855       .  S
O961        C970   1.236       .  A
O961       Al968   1.843       .  S
O962       Al968   1.904       .  S
O963        C970   1.246       .  A
O964       Al968   1.784       .  S
O965        C966   1.282       .  A
C966       C1266   1.508       .  S
C967       C1346   1.519   1_655  S
C970       C1237   1.468       .  S
C971        O972   1.267       .  A
C971       C1250   1.459       .  S
O973        C988   1.291       .  A
O973       Al981   1.972       .  S
C974        O984   1.294       .  A
C974        O975   1.281       .  A
C974       C1218   1.501       .  S
O975       Al977   1.879       .  S
O976        C978   1.255       .  A
O976       Al977   1.932       .  S
Al977       O985   1.960       .  S
Al977       O987   1.921       .  S
Al977       O986   1.776       .  S
C978        O991   1.250       .  A
C978       C1362   1.495       .  S
O979        C989   1.270       .  A
O979       Al981   1.971       .  S
O980        C993   1.276       .  A
O980       Al990   1.969       .  S
Al981       O994   1.829       .  S
Al981       O991   1.905       .  S
Al981       O986   1.760       .  S
O982        C989   1.246       .  A
O982       Al990   1.828       .  S
O983        C992   1.245       .  A
O983       Al990   1.900       .  S
O984       Al990   1.986       .  S
O985        C992   1.254       .  A
O986       Al990   1.753       .  S
O987        C988   1.286       .  A
C989       C1621   1.507       .  S
C992       C1170   1.503       .  S
C993        O994   1.244       .  A
C993       C1186   1.495       .  S
O995       C1010   1.282       .  A
O995      Al1003   1.945       .  S
C996       O1006   1.278       .  A
C996        O997   1.281       .  A
C996       C1282   1.483       .  S
O997       Al999   1.883       .  S
O998       C1000   1.258       .  A
O998       Al999   1.947       .  S
Al999      O1007   1.929       .  S
Al999      O1009   1.923       .  S
Al999      O1008   1.786       .  S
C1000      O1013   1.248       .  A
C1000      C1154   1.489       .  S
O1001      C1011   1.260       .  A
O1001     Al1003   1.930       .  S
O1002      C1015   1.268       .  A
O1002     Al1012   1.935       .  S
Al1003     O1016   1.838       .  S
Al1003     O1013   1.892       .  S
Al1003     O1008   1.776       .  S
O1004      C1011   1.256       .  A
O1004     Al1012   1.885       .  S
O1005      C1014   1.253       .  A
O1005     Al1012   1.902       .  S
O1006     Al1012   1.934       .  S
O1007      C1014   1.250       .  A
O1008     Al1012   1.776       .  S
O1009      C1010   1.277       .  A
C1010      C1269   1.484       .  S
C1011      C1397   1.501       .  S
C1014      C1173   1.501       .  S
C1015      O1016   1.247       .  A
C1015      C1445   1.484       .  S
O1017      C1032   1.278       .  A
O1017     Al1025   1.916       .  S
C1018      O1028   1.281       .  A
C1018      O1019   1.275       .  A
C1018      C1666   1.479       .  S
O1019     Al1021   1.905       .  S
O1020      C1022   1.251       .  A
O1020     Al1021   1.911       .  S
Al1021     O1029   1.958       .  S
Al1021     O1031   1.923       .  S
Al1021     O1030   1.783       .  S
C1022      O1035   1.256       .  A
C1022      C1122   1.504       .  S
O1023      C1033   1.266       .  A
O1023     Al1025   1.936       .  S
O1024      C1037   1.257       .  A
O1024     Al1034   1.913       .  S
Al1025     O1038   1.860       .  S
Al1025     O1035   1.926       .  S
Al1025     O1030   1.770       .  S
O1026      C1033   1.248       .  A
O1026     Al1034   1.857       .  S
O1027      C1036   1.244       .  A
O1027     Al1034   1.893       .  S
O1028     Al1034   1.931       .  S
O1029      C1036   1.256       .  A
O1030     Al1034   1.776       .  S
O1031      C1032   1.283       .  A
C1033      C1141   1.494       .  S
C1036      C1426   1.498       .  S
C1037      O1038   1.259       .  A
C1037      C1189   1.467       .  S
O1039      C1054   1.290       .  A
O1039     Al1047   1.986       .  S
C1040      O1050   1.278       .  A
C1040      O1041   1.283       .  A
C1040      C1330   1.486       .  S
O1041     Al1043   1.889       .  S
O1042      C1044   1.256       .  A
O1042     Al1043   1.947       .  S
Al1043     O1051   1.933       .  S
Al1043     O1053   1.903       .  S
Al1043     O1052   1.794       .  S
C1044      O1057   1.245       .  A
C1044      C1106   1.485       .  S
O1045      C1055   1.268       .  A
O1045     Al1047   1.948       .  S
O1046      C1059   1.266       .  A
O1046     Al1056   1.939       .  S
Al1047     O1060   1.824       .  S
Al1047     O1057   1.893       .  S
Al1047     O1052   1.763       .  S
O1048      C1055   1.252       .  A
O1048     Al1056   1.867       .  S
O1049      C1058   1.253       .  A
O1049     Al1056   1.878       .  S
O1050     Al1056   1.930       .  S
O1051      C1058   1.250       .  A
O1052     Al1056   1.767       .  S
O1053      C1054   1.274       .  A
C1054      C1317   1.490       .  S
C1055      C1157   1.496       .  S
C1058      C1589   1.492       .  S
C1059      O1060   1.241       .  A
C1059      C1253   1.485       .  S
O1061      C1076   1.272       .  A
O1061     Al1069   1.921       .  S
C1062      O1072   1.265       .  A
C1062      O1063   1.271       .  A
C1062      C1525   1.483       .  S
O1063     Al1065   1.910       .  S
O1064      C1066   1.253       .  A
O1064     Al1065   1.886       .  S
Al1065     O1073   1.929       .  S
Al1065     O1074   1.785       .  S
O1067      C1077   1.270       .  A
O1068      C1081   1.254       .  A
Al1069     O1082   1.879       .  S
Al1069     O1079   1.967       .  S
O1070      C1077   1.254       .  A
O1070     Al1078   1.852       .  S
O1071      C1080   1.252       .  A
O1071     Al1078   1.885       .  S
O1072     Al1078   1.917       .  S
O1073      C1080   1.256       .  A
O1074     Al1078   1.777       .  S
O1075      C1076   1.276       .  A
C1076      C1541   1.489       .  S
C1077      C1125   1.508       .  S
C1080      C1234   1.471       .  S
C1081      O1082   1.257       .  A
C1081      C1602   1.460       .  S
O1083      C1098   1.278       .  A
O1083     Al1091   1.956       .  S
C1084      O1094   1.280       .  A
C1084      O1085   1.270       .  A
C1084      C1221   1.496       .  S
O1085     Al1087   1.875       .  S
O1086      C1088   1.266       .  A
O1086     Al1087   1.947       .  S
Al1087     O1095   1.968       .  S
Al1087     O1097   1.922       .  S
Al1087     O1096   1.785       .  S
C1088      O1101   1.253       .  A
C1088      C1138   1.489       .  S
O1089      C1099   1.264       .  A
O1089     Al1091   1.951       .  S
O1090      C1103   1.271       .  A
O1090     Al1100   1.942       .  S
Al1091     O1104   1.819       .  S
Al1091     O1101   1.892       .  S
Al1091     O1096   1.774       .  S
O1092      C1099   1.245       .  A
O1092     Al1100   1.853       .  S
O1093      C1102   1.247       .  A
O1093     Al1100   1.885       .  S
O1094     Al1100   1.958       .  S
O1095      C1102   1.261       .  A
O1096     Al1100   1.765       .  S
O1097      C1098   1.274       .  A
C1098      C1202   1.486       .  S
C1099      C1109   1.486       .  S
C1102      C1509   1.497       .  S
C1103      O1104   1.242       .  A
C1103      C1298   1.484       .  S
C1105      C1106   1.404       .  A
C1105      C1110   1.409       .  A
C1105      H1112   1.083       .  S
C1106      C1107   1.412       .  A
C1107      C1108   1.414       .  A
C1107      C1114   1.515       .  S
C1108      C1109   1.410       .  A
C1108      H1113   1.082       .  S
C1109      C1110   1.418       .  A
C1110      C1111   1.517       .  S
C1111      F1115   1.385       .  S
C1111      F1116   1.383       .  S
C1111      F1117   1.379       .  S
C1114      F1118   1.383       .  S
C1114      F1119   1.383       .  S
C1114      F1120   1.384       .  S
C1121      C1122   1.415       .  A
C1121      C1126   1.424       .  A
C1121      H1128   1.083       .  S
C1122      C1123   1.422       .  A
C1123      C1124   1.403       .  A
C1123      C1130   1.526       .  S
C1124      C1125   1.411   1_455  A
C1124      H1129   1.082   1_455  S
C1125      C1126   1.418   1_655  A
C1126      C1127   1.515       .  S
C1127      F1131   1.384       .  S
C1127      F1132   1.383   1_455  S
C1127      F1133   1.382   1_455  S
C1130      F1134   1.379       .  S
C1130      F1135   1.382       .  S
C1130      F1136   1.385       .  S
C1137      C1138   1.399       .  A
C1137      C1142   1.404       .  A
C1137      H1144   1.084       .  S
C1138      C1139   1.425       .  A
C1139      C1140   1.411       .  A
C1139      C1146   1.518       .  S
C1140      C1141   1.403   1_545  A
C1140      H1145   1.082   1_545  S
C1141      C1142   1.428   1_565  A
C1142      C1143   1.520   1_545  S
C1143      F1147   1.385       .  S
C1143      F1148   1.383       .  S
C1143      F1149   1.383       .  S
C1146      F1150   1.381       .  S
C1146      F1151   1.383       .  S
C1146      F1152   1.385       .  S
C1153      C1154   1.408       .  A
C1153      C1158   1.414       .  A
C1153      H1160   1.083       .  S
C1154      C1155   1.410       .  A
C1155      C1156   1.412   1_655  A
C1155      C1162   1.516       .  S
C1156      C1157   1.412       .  A
C1156      H1161   1.081       .  S
C1157      C1158   1.417   1_455  A
C1158      C1159   1.517       .  S
C1159      F1163   1.385       .  S
C1159      F1164   1.383   1_655  S
C1159      F1165   1.382       .  S
C1162      F1166   1.384       .  S
C1162      F1167   1.382       .  S
C1162      F1168   1.384   1_655  S
C1169      C1170   1.400       .  A
C1169      C1174   1.418       .  A
C1169      H1176   1.085       .  S
C1170      C1171   1.422       .  A
C1171      C1172   1.408       .  A
C1171      C1178   1.504       .  S
C1172      C1173   1.398       .  A
C1172      H1177   1.084       .  S
C1173      C1174   1.434       .  A
C1174      C1175   1.517       .  S
C1175      F1179   1.381       .  S
C1175      F1180   1.374       .  S
C1175      F1181   1.383       .  S
C1178      F1182   1.381       .  S
C1178      F1183   1.374       .  S
C1178      F1184   1.385       .  S
C1185      C1186   1.413       .  A
C1185      H1192   1.083       .  S
C1186      C1187   1.444   1_556  A
C1187      C1194   1.537       .  S
C1188      C1189   1.385   1_545  A
C1188      H1193   1.085       .  S
C1189      C1190   1.410       .  A
C1190      C1191   1.512       .  S
C1191      F1195   1.384       .  S
C1191      F1196   1.382       .  S
C1191      F1197   1.383       .  S
C1194      F1198   1.384   1_554  S
C1194      F1199   1.374       .  S
C1201      C1202   1.406       .  A
C1201      C1206   1.416       .  A
C1201      H1208   1.083       .  S
C1202      C1203   1.411       .  A
C1203      C1204   1.410       .  A
C1203      C1210   1.515       .  S
C1204      C1205   1.405       .  A
C1204      H1209   1.082       .  S
C1205      C1206   1.416       .  A
C1206      C1207   1.516       .  S
C1207      F1211   1.384       .  S
C1210      F1214   1.383       .  S
C1210      F1215   1.383       .  S
C1210      F1216   1.382       .  S
C1217      C1218   1.412       .  A
C1217      C1222   1.405       .  A
C1217      H1224   1.083       .  S
C1218      C1219   1.422       .  A
C1219      C1220   1.404       .  A
C1219      C1226   1.514       .  S
C1220      C1221   1.408       .  A
C1220      H1225   1.082       .  S
C1221      C1222   1.419       .  A
C1222      C1223   1.519       .  S
C1223      F1227   1.385       .  S
C1223      F1228   1.377       .  S
C1223      F1229   1.380       .  S
C1226      F1230   1.377       .  S
C1226      F1231   1.376       .  S
C1226      F1232   1.385       .  S
C1233      C1234   1.407       .  A
C1233      C1238   1.409       .  A
C1233      H1240   1.084       .  S
C1234      C1235   1.409       .  A
C1235      C1236   1.405       .  A
C1236      C1237   1.405       .  A
C1236      H1241   1.084       .  S
C1237      C1238   1.409       .  A
C1238      C1239   1.516       .  S
C1239      F1243   1.385       .  S
C1239      F1244   1.383       .  S
C1239      F1245   1.383       .  S
C1242      F1246   1.382       .  S
C1242      F1247   1.383       .  S
C1242      F1248   1.383       .  S
C1249      C1250   1.386   1_455  A
C1249      C1254   1.390       .  A
C1249      H1256   1.083       .  S
C1250      C1251   1.406       .  A
C1251      C1252   1.413   1_655  A
C1251      C1258   1.513       .  S
C1252      C1253   1.412       .  A
C1252      H1257   1.083       .  S
C1253      C1254   1.438       .  A
C1254      C1255   1.531       .  S
C1255      F1259   1.384       .  S
C1255      F1260   1.374       .  S
C1255      F1261   1.385       .  S
C1258      F1262   1.383       .  S
C1258      F1263   1.383       .  S
C1258      F1264   1.384       .  S
C1265      C1266   1.411       .  A
C1265      C1270   1.423       .  A
C1265      H1272   1.082       .  S
C1266      C1267   1.430       .  A
C1267      C1268   1.399       .  A
C1267      C1274   1.512       .  S
C1268      C1269   1.391       .  A
C1268      H1273   1.085       .  S
C1269      C1270   1.419       .  A
C1270      C1271   1.515       .  S
C1271      F1275   1.384       .  S
C1271      F1276   1.383       .  S
C1271      F1277   1.381       .  S
C1274      F1278   1.370       .  S
C1274      F1279   1.382       .  S
C1274      F1280   1.386       .  S
C1281      C1282   1.397       .  A
C1281      C1286   1.393       .  A
C1281      H1288   1.083       .  S
C1282      C1283   1.423       .  A
C1283      C1284   1.413       .  A
C1283      C1290   1.521       .  S
C1284      C1285   1.406   1_556  A
C1285      C1286   1.423   1_554  A
C1286      C1287   1.513       .  S
C1287      F1291   1.385       .  S
C1287      F1293   1.377       .  S
C1290      F1294   1.383       .  S
C1290      F1295   1.381       .  S
C1290      F1296   1.385       .  S
C1297      C1298   1.404       .  A
C1297      C1302   1.401       .  A
C1297      H1304   1.084       .  S
C1298      C1299   1.439       .  A
C1299      C1300   1.396       .  A
C1299      C1306   1.528       .  S
C1300      C1301   1.389       .  A
C1300      H1305   1.084       .  S
C1301      C1302   1.408       .  A
C1302      C1303   1.504       .  S
C1303      F1307   1.382       .  S
C1303      F1308   1.379       .  S
C1303      F1309   1.384       .  S
C1306      F1310   1.383       .  S
C1306      F1311   1.370       .  S
C1306      F1312   1.383       .  S
C1313      C1314   1.397       .  A
C1313      C1318   1.409       .  A
C1313      H1320   1.084       .  S
C1314      C1315   1.407       .  A
C1315      C1316   1.412       .  A
C1315      C1322   1.503       .  S
C1316      C1317   1.403       .  A
C1316      H1321   1.083       .  S
C1317      C1318   1.417       .  A
C1318      C1319   1.509       .  S
C1319      F1323   1.379       .  S
C1319      F1324   1.383       .  S
C1319      F1325   1.378       .  S
C1322      F1326   1.384       .  S
C1322      F1327   1.376       .  S
C1322      F1328   1.383       .  S
C1329      C1330   1.401       .  A
C1329      C1334   1.397       .  A
C1329      H1336   1.082       .  S
C1330      C1331   1.428       .  A
C1331      C1332   1.407       .  A
C1331      C1338   1.524       .  S
C1332      C1333   1.401       .  A
C1332      H1337   1.083       .  S
C1333      C1334   1.422       .  A
C1334      C1335   1.520       .  S
C1335      F1339   1.385       .  S
C1335      F1340   1.380       .  S
C1335      F1341   1.381       .  S
C1338      F1342   1.382       .  S
C1338      F1343   1.381       .  S
C1338      F1344   1.385       .  S
C1345      C1346   1.416       .  A
C1345      C1350   1.431       .  A
C1345      H1352   1.082       .  S
C1346      C1347   1.438       .  A
C1347      C1348   1.400       .  A
C1347      C1354   1.534       .  S
C1348      C1349   1.401       .  A
C1348      H1353   1.081       .  S
C1349      C1350   1.422       .  A
C1351      F1355   1.384       .  S
C1351      F1357   1.384       .  S
C1354      F1358   1.380       .  S
C1354      F1359   1.376   1_455  S
C1354      F1360   1.386       .  S
C1361      C1362   1.413       .  A
C1361      C1366   1.422       .  A
C1361      H1368   1.083       .  S
C1362      C1363   1.412       .  A
C1363      C1364   1.404       .  A
C1363      C1370   1.521       .  S
C1364      C1365   1.414       .  A
C1364      H1369   1.082       .  S
C1365      C1366   1.418       .  A
C1366      C1367   1.516       .  S
C1367      F1371   1.385       .  S
C1367      F1372   1.383       .  S
C1370      F1374   1.384       .  S
C1370      F1375   1.382       .  S
C1370      F1376   1.385       .  S
C1377      C1378   1.402       .  A
C1377      C1382   1.401       .  A
C1377      H1384   1.083       .  S
C1378      C1379   1.409       .  A
C1379      C1380   1.413       .  A
C1380      C1381   1.411       .  A
C1380      H1385   1.084       .  S
C1381      C1382   1.415       .  A
C1382      C1383   1.517       .  S
C1383      F1387   1.384       .  S
C1383      F1388   1.382       .  S
C1383      F1389   1.383       .  S
C1386      F1390   1.383       .  S
C1386      F1391   1.383       .  S
C1386      F1392   1.384       .  S
C1393      C1394   1.409       .  A
C1393      C1398   1.422       .  A
C1393      H1400   1.083       .  S
C1394      C1395   1.416       .  A
C1395      C1396   1.405       .  A
C1395      C1402   1.506       .  S
C1396      C1397   1.403   1_565  A
C1396      H1401   1.083   1_565  S
C1397      C1398   1.422   1_545  A
C1398      C1399   1.516       .  S
C1399      F1403   1.384       .  S
C1399      F1404   1.383   1_565  S
C1399      F1405   1.383       .  S
C1402      F1406   1.384       .  S
C1402      F1407   1.382       .  S
C1402      F1408   1.385       .  S
C1409      C1410   1.389       .  A
C1409      C1414   1.396       .  A
C1409      H1416   1.082       .  S
C1410      C1411   1.416       .  A
C1412      H1417   1.082       .  S
C1413      C1414   1.432       .  A
C1414      C1415   1.519       .  S
C1415      F1419   1.383       .  S
C1415      F1420   1.381       .  S
C1415      F1421   1.376       .  S
C1418      F1422   1.384       .  S
C1418      F1423   1.382       .  S
C1418      F1424   1.384       .  S
C1425      C1426   1.400       .  A
C1425      C1430   1.415       .  A
C1425      H1432   1.083       .  S
C1426      C1427   1.420       .  A
C1427      C1428   1.402       .  A
C1427      C1434   1.486       .  S
C1428      C1429   1.383       .  A
C1428      H1433   1.084       .  S
C1429      C1430   1.422       .  A
C1430      C1431   1.505       .  S
C1431      F1435   1.384       .  S
C1431      F1436   1.382       .  S
C1431      F1437   1.379       .  S
C1434      F1438   1.383       .  S
C1434      F1439   1.382       .  S
C1434      F1440   1.382       .  S
C1441      C1442   1.385   1_545  A
C1441      C1446   1.387       .  A
C1441      H1448   1.074       .  S
C1442      C1443   1.407       .  A
C1443      C1444   1.408   1_565  A
C1443      C1450   1.509       .  S
C1444      C1445   1.409       .  A
C1444      H1449   1.084       .  S
C1445      C1446   1.435       .  A
C1446      C1447   1.526       .  S
C1447      F1451   1.385       .  S
C1447      F1452   1.383       .  S
C1447      F1453   1.369       .  S
C1450      F1454   1.379       .  S
C1450      F1455   1.384       .  S
C1450      F1456   1.383       .  S
C1457      C1458   1.395       .  A
C1457      C1462   1.403       .  A
C1457      H1464   1.084       .  S
C1458      C1459   1.415       .  A
C1459      C1460   1.403       .  A
C1459      C1466   1.507       .  S
C1460      C1461   1.396       .  A
C1460      H1465   1.085       .  S
C1461      C1462   1.419       .  A
C1462      C1463   1.509       .  S
C1463      F1467   1.384       .  S
C1463      F1468   1.383       .  S
C1463      F1469   1.382       .  S
C1466      F1470   1.383       .  S
C1466      F1471   1.383       .  S
C1466      F1472   1.384       .  S
C1473      C1474   1.411       .  A
C1473      C1478   1.383       .  A
C1473      H1480   1.082       .  S
C1474      C1475   1.414       .  A
C1475      C1476   1.401       .  A
C1475      C1482   1.519       .  S
C1476      C1477   1.411       .  A
C1476      H1481   1.083       .  S
C1477      C1478   1.403       .  A
C1479      F1484   1.384   1_554  S
C1479      F1485   1.367   1_554  S
C1482      F1486   1.384       .  S
C1482      F1487   1.382       .  S
C1482      F1488   1.385       .  S
C1489      C1490   1.416       .  A
C1489      C1494   1.425       .  A
C1489      H1496   1.082       .  S
C1490      C1491   1.439       .  A
C1491      C1492   1.396       .  A
C1491      C1498   1.531       .  S
C1492      C1493   1.390       .  A
C1492      H1497   1.083       .  S
C1493      C1494   1.412       .  A
C1494      C1495   1.511   1_545  S
C1495      F1499   1.384   1_565  S
C1495      F1500   1.384       .  S
C1495      F1501   1.382       .  S
C1498      F1502   1.383       .  S
C1498      F1503   1.383       .  S
C1498      F1504   1.386       .  S
C1505      C1506   1.394       .  A
C1505      C1510   1.397       .  A
C1505      H1512   1.083       .  S
C1506      C1507   1.425       .  A
C1507      C1508   1.422       .  A
C1507      C1514   1.517       .  S
C1508      C1509   1.406       .  A
C1508      H1513   1.083       .  S
C1509      C1510   1.423       .  A
C1510      C1511   1.510       .  S
C1511      F1515   1.386       .  S
C1511      F1516   1.379       .  S
C1511      F1517   1.378       .  S
C1514      F1518   1.383       .  S
C1514      F1519   1.380       .  S
C1514      F1520   1.384       .  S
C1521      C1522   1.402       .  A
C1521      C1526   1.394       .  A
C1521      H1528   1.081       .  S
C1522      C1523   1.423       .  A
C1523      C1524   1.410       .  A
C1523      C1530   1.521       .  S
C1524      C1525   1.405       .  A
C1524      H1529   1.083       .  S
C1525      C1526   1.424       .  A
C1526      C1527   1.523       .  S
C1527      F1531   1.386       .  S
C1527      F1532   1.377       .  S
C1527      F1533   1.382       .  S
C1530      F1534   1.378       .  S
C1530      F1535   1.381       .  S
C1530      F1536   1.385       .  S
C1537      C1538   1.395       .  A
C1537      C1542   1.401       .  A
C1537      H1544   1.085       .  S
C1538      C1539   1.426       .  A
C1539      C1540   1.415       .  A
C1539      C1546   1.516       .  S
C1540      C1541   1.402       .  A
C1540      H1545   1.084       .  S
C1541      C1542   1.413       .  A
C1542      C1543   1.504       .  S
C1543      F1547   1.384       .  S
C1543      F1548   1.383       .  S
C1543      F1549   1.382       .  S
C1546      F1550   1.383       .  S
C1546      F1551   1.380       .  S
C1546      F1552   1.381       .  S
C1553      C1554   1.408       .  A
C1553      C1558   1.405       .  A
C1553      H1560   1.084       .  S
C1554      C1555   1.441       .  A
C1555      C1556   1.381       .  A
C1555      C1562   1.536       .  S
C1556      C1557   1.383       .  A
C1556      H1561   1.076       .  S
C1557      C1558   1.406       .  A
C1558      C1559   1.509       .  S
C1559      F1563   1.381       .  S
C1559      F1564   1.382       .  S
C1559      F1565   1.383       .  S
C1562      F1566   1.384       .  S
C1562      F1567   1.378       .  S
C1562      F1568   1.386       .  S
C1569      C1570   1.408       .  A
C1569      C1574   1.418       .  A
C1569      H1576   1.083       .  S
C1570      C1571   1.421       .  A
C1571      C1572   1.406       .  A
C1571      C1578   1.513       .  S
C1572      C1573   1.400       .  A
C1572      H1577   1.083       .  S
C1573      C1574   1.420       .  A
C1574      C1575   1.516       .  S
C1575      F1579   1.385       .  S
C1575      F1580   1.382       .  S
C1575      F1581   1.383       .  S
C1578      F1582   1.381       .  S
C1578      F1583   1.384       .  S
C1578      F1584   1.385       .  S
C1585      C1586   1.403       .  A
C1585      C1590   1.419       .  A
C1585      H1592   1.085       .  S
C1586      C1587   1.427       .  A
C1587      C1588   1.397       .  A
C1587      C1594   1.511       .  S
C1588      C1589   1.394       .  A
C1588      H1593   1.084       .  S
C1589      C1590   1.433       .  A
C1590      C1591   1.521       .  S
C1591      F1595   1.383       .  S
C1591      F1596   1.374       .  S
C1591      F1597   1.383       .  S
C1594      F1598   1.386       .  S
C1594      F1599   1.369       .  S
C1594      F1600   1.378       .  S
C1601      C1602   1.386   1_455  A
C1601      C1606   1.392       .  A
C1601      H1608   1.084       .  S
C1602      C1603   1.408       .  A
C1603      C1604   1.409   1_655  A
C1603      C1610   1.510       .  S
C1604      C1605   1.410       .  A
C1604      H1609   1.084       .  S
C1605      C1606   1.441       .  A
C1606      C1607   1.528       .  S
C1607      F1611   1.385       .  S
C1607      F1612   1.383       .  S
C1607      F1613   1.370       .  S
C1610      F1614   1.379       .  S
C1610      F1615   1.383       .  S
C1610      F1616   1.383   1_655  S
C1617      C1618   1.413       .  A
C1617      C1622   1.419       .  A
C1617      H1624   1.083       .  S
C1618      C1619   1.410       .  A
C1619      C1620   1.398   1_565  A
C1619      C1626   1.523       .  S
C1620      C1621   1.418       .  A
C1620      H1625   1.082       .  S
C1621      C1622   1.416   1_545  A
C1622      C1623   1.513   1_565  S
C1623      F1627   1.384   1_545  S
C1623      F1628   1.384       .  S
C1623      F1629   1.382       .  S
C1626      F1630   1.384       .  S
C1626      F1631   1.383       .  S
C1626      F1632   1.385       .  S
C1633      C1634   1.401   1_655  A
C1633      C1638   1.415       .  A
C1633      H1640   1.082   1_655  S
C1634      C1635   1.436   1_455  A
C1635      C1636   1.402       .  A
C1635      C1642   1.523   1_655  S
C1636      C1637   1.393       .  A
C1636      H1641   1.084       .  S
C1637      C1638   1.430       .  A
C1638      C1639   1.519       .  S
C1639      F1643   1.385       .  S
C1639      F1644   1.380       .  S
C1639      F1645   1.383       .  S
C1642      F1646   1.383       .  S
C1642      F1647   1.376       .  S
C1642      F1648   1.385       .  S
C1649      C1650   1.403       .  A
C1649      C1654   1.409       .  A
C1649      H1656   1.084       .  S
C1650      C1651   1.411       .  A
C1651      C1652   1.402       .  A
C1651      C1658   1.517       .  S
C1652      C1653   1.404       .  A
C1652      H1657   1.083       .  S
C1653      C1654   1.415       .  A
C1655      F1660   1.382       .  S
C1655      F1661   1.383       .  S
C1658      F1662   1.382       .  S
C1658      F1663   1.383       .  S
C1658      F1664   1.385       .  S
C1665      C1666   1.387       .  A
C1665      C1670   1.383       .  A
C1665      H1672   1.062       .  S
C1666      C1667   1.415       .  A
C1667      C1668   1.414       .  A
C1667      C1674   1.515       .  S
C1668      C1669   1.408       .  A
C1668      H1673   1.080       .  S
C1669      C1670   1.419       .  A
C1670      C1671   1.525       .  S
C1671      F1675   1.381       .  S
C1671      F1676   1.362       .  S
C1671      F1677   1.384       .  S
C1674      F1678   1.376       .  S
C1674      F1679   1.384       .  S
C1674      F1680   1.384       .  S
