geometry optimzed in LAMMPS
_audit_creation_date              2020-12-01 
_audit_creation_method            'lammps2cif' 
_symmetry_space_group_name_H-M    'P1' 
_symmetry_Int_Tables_number       1 
_symmetry_cell_setting            triclinic 
loop_ 
_symmetry_equiv_pos_as_xyz 
  x,y,z 
_cell_length_a                    28.31517108 
_cell_length_b                    28.371198571466618 
_cell_length_c                    36.17493235207228 
_cell_angle_alpha                 90.41634981912327 
_cell_angle_beta                  89.98566554307844 
_cell_angle_gamma                 90.04113400993312 
loop_ 
_atom_site_label 
_atom_site_type_symbol 
_atom_site_fract_x 
_atom_site_fract_y 
_atom_site_fract_z 
_atom_site_charge 
O1          O  0.49441017  0.30701536  0.17004136    -0.82900
C2          C  0.59709612  0.14082656  0.17235754     0.96400
O3          O  0.55578610  0.14164555  0.15875115    -0.72100
O4          O  0.50024883  0.18172634  0.20714023    -0.75600
Al5        Al  0.51269174  0.19512592  0.15666216     1.49000
C6          C  0.49324371  0.20982852  0.23362773     0.91700
O7          O  0.59908937  0.27285120  0.22825188    -0.81900
O8          O  0.60969677  0.29225741  0.12050090    -0.75400
Al9        Al  0.54649700  0.28641069  0.19710529     1.90100
O10         O  0.64933440  0.26092758  0.18310419    -0.74500
O11         O  0.59448883  0.20282888  0.10127258    -0.74300
O12         O  0.62438961  0.17565556  0.16930525    -0.80000
O13         O  0.51793620  0.20216755  0.10425154    -0.78200
O14         O  0.55740677  0.23830505  0.16637179    -1.14300
O15         O  0.46118307  0.23990607  0.15429816    -0.73500
C16         C  0.45924864  0.28422738  0.15842532     0.97200
C17         C  0.64091779  0.26946183  0.21642445     0.93600
Al18       Al  0.61422927  0.23291839  0.14514762     1.55600
O19         O  0.50673413  0.25224976  0.23141244    -0.78200
C20         C  0.55531646  0.19921376  0.08549843     0.97700
C21         C  0.60447304  0.33026199  0.13868881     0.92600
O22         O  0.58309783  0.33029780  0.16947143    -0.83500
O23         O  0.89205487  0.20677079  0.33767414    -0.82900
C24         C  0.88398565  0.40160079  0.33856044     0.96400
O25         O  0.85709166  0.37806060  0.35946680    -0.72100
O26         O  0.82238263  0.32018237  0.31192982    -0.75600
Al27       Al  0.84976742  0.31028559  0.35788332     1.49000
C28         C  0.81948750  0.28860848  0.28773711     0.91700
O29         O  0.93786462  0.29800575  0.26952304    -0.81900
O30         O  0.98847740  0.28017200  0.37197151    -0.75400
Al31       Al  0.91456981  0.25405527  0.30549846     1.90100
O32         O  0.98865786  0.33028723  0.30751397    -0.74500
O33         O  0.93378228  0.34565987  0.40293066    -0.74300
O34         O  0.92624051  0.38846889  0.33415866    -0.80000
O35         O  0.87062669  0.30159328  0.40622764    -0.78200
O36         O  0.90648579  0.29887597  0.33914059    -1.14300
O37         O  0.83041248  0.24497083  0.35894684    -0.73500
C38         C  0.85193261  0.20654393  0.35302902     0.97200
C39         C  0.97296384  0.32475200  0.27514826     0.93600
Al40       Al  0.95538428  0.33365615  0.35339150     1.55600
O41         O  0.85290546  0.25961250  0.28325880    -0.78200
C42         C  0.90252687  0.32507608  0.42176485     0.97700
C43         C  0.99938893  0.24517179  0.35177651     0.92600
O44         O  0.97713834  0.23723266  0.32185916    -0.83500
O45         O  0.56664403  0.32704890  0.84432799    -0.82900
C46         C  0.58346473  0.12991513  0.84137542     0.96400
O47         O  0.61008187  0.15529510  0.86136032    -0.72100
O48         O  0.64219448  0.21890654  0.81749031    -0.75600
Al49       Al  0.61211042  0.22353331  0.86330904     1.49000
C50         C  0.64224390  0.25028650  0.79325970     0.91700
O51         O  0.52302251  0.23581873  0.77309200    -0.81900
O52         O  0.46920832  0.24351284  0.87371732    -0.75400
Al53       Al  0.54513081  0.27871904  0.81119571     1.90100
O54         O  0.47691736  0.19430956  0.80880335    -0.74500
O55         O  0.52660486  0.18332624  0.90566545    -0.74300
O56         O  0.54085194  0.14143513  0.83719402    -0.80000
O57         O  0.58965439  0.22710069  0.91237286    -0.78200
O58         O  0.55497827  0.23252626  0.84361144    -1.14300
O59         O  0.62736851  0.28953127  0.86738676    -0.73500
C60         C  0.60658232  0.32785855  0.85999974     0.97200
C61         C  0.49033437  0.20577997  0.77688994     0.93600
Al62       Al  0.50765703  0.19383052  0.85562056     1.55600
O63         O  0.60658779  0.27628067  0.78885751    -0.78200
C64         C  0.55642009  0.20360875  0.92613598     0.97700
C65         C  0.45766032  0.27924599  0.85520627     0.92600
O66         O  0.48205016  0.29238176  0.82779186    -0.83500
O67         O  0.96051690  0.22779798  0.67178694    -0.82900
C68         C  0.86480420  0.40018606  0.66193763     0.96400
O69         O  0.90630456  0.39410809  0.64953942    -0.72100
O70         O  0.95914904  0.35733433  0.69903592    -0.75600
Al71       Al  0.94595496  0.33830956  0.65083298     1.49000
C72         C  0.96557294  0.33426445  0.72787071     0.91700
O73         O  0.85896739  0.27540268  0.72901713    -0.81900
O74         O  0.84170271  0.24282890  0.62416722    -0.75400
Al75       Al  0.90949974  0.25489904  0.69804809     1.90100
O76         O  0.80759051  0.28669688  0.68470213    -0.74500
O77         O  0.86325104  0.32636806  0.59657251    -0.74300
O78         O  0.83543409  0.36702346  0.66178830    -0.80000
O79         O  0.93977992  0.32470167  0.60007130    -0.78200
O80         O  0.89947374  0.29932584  0.66407618    -1.14300
O81         O  0.99496612  0.29108500  0.65075872    -0.73500
C82         C  0.99556272  0.24719948  0.65686720     0.97200
C83         C  0.81696310  0.27971456  0.71804256     0.93600
Al84       Al  0.84226815  0.30550769  0.64336453     1.55600
O85         O  0.95147756  0.29196391  0.72941479    -0.78200
C86         C  0.90296089  0.32629912  0.58099802     0.97700
C87         C  0.84592857  0.20700703  0.64451458     0.92600
O88         O  0.86949058  0.20889442  0.67427044    -0.83500
O89         O  0.67519788  0.60949837  0.83766713    -0.82900
C90         C  0.87286399  0.61948472  0.83791885     0.96400
O91         O  0.84773635  0.64550701  0.85831470    -0.72100
O92         O  0.78940488  0.67815892  0.80975343    -0.75600
Al93       Al  0.78016715  0.65119228  0.85635598     1.49000
C94         C  0.75716808  0.68036455  0.78607109     0.91700
O95         O  0.76546998  0.56133519  0.76741431    -0.81900
O96         O  0.75322648  0.50978717  0.86844967    -0.75400
Al97       Al  0.72262916  0.58561909  0.80470168     1.90100
O98         O  0.80381448  0.51419563  0.80428563    -0.74500
O99         O  0.81530190  0.56694670  0.90084907    -0.74300
O100        O  0.86000198  0.57742826  0.83213182    -0.80000
O101        O  0.77207296  0.63069070  0.90510300    -0.78200
O102        O  0.76879767  0.59416748  0.83749231    -1.14300
O103        O  0.71556683  0.67017464  0.85793770    -0.73500
C104        C  0.67642747  0.65012996  0.85246202     0.97200
C105        C  0.79433420  0.52775483  0.77207506     0.93600
Al106      Al  0.80527971  0.54615746  0.85065709     1.55600
O107        O  0.72785507  0.64698919  0.78232261    -0.78200
C108        C  0.79482755  0.59808225  0.92019816     0.97700
C109        C  0.71726873  0.49896071  0.84933906     0.92600
O110        O  0.70599258  0.52314898  0.82133896    -0.83500
O111        O  0.76601091  0.00214877  0.67144655    -0.82900
C112        C  0.60028472  0.89407625  0.66492689     0.96400
O113        O  0.60278482  0.93621084  0.65360994    -0.72100
O114        O  0.63711167  0.99483901  0.70113842    -0.75600
Al115      Al  0.65520280  0.97971738  0.65233635     1.49000
C116        C  0.66132701  0.00462375  0.72912667     0.91700
O117        O  0.72340303  0.90052009  0.73143689    -0.81900
O118        O  0.76039912  0.88373297  0.62674452    -0.75400
Al119      Al  0.74191660  0.95111718  0.69960972     1.90100
O120        O  0.71827438  0.84737895  0.68711751    -0.74500
O121        O  0.67545606  0.89660950  0.59765819    -0.74300
O122        O  0.63556723  0.86720492  0.66302821    -0.80000
O123        O  0.66613151  0.97237653  0.60083188    -0.78200
O124        O  0.69809405  0.93691877  0.66560813    -1.14300
O125        O  0.69956158  0.03088558  0.64976327    -0.73500
C126        C  0.74368831  0.03422348  0.65488433     1.02000
C127        C  0.72277450  0.85803367  0.72062819     0.93600
Al128      Al  0.69709432  0.87905748  0.64515715     1.55600
O129        O  0.70419116  0.99275865  0.72989906    -0.78200
C130        C  0.66989778  0.93545524  0.58181304     0.97700
C131        C  0.79527166  0.89070896  0.64804374     0.92600
O132        O  0.78987988  0.91313564  0.67796814    -0.83500
O133        O  0.70842673  0.51710303  0.17856988    -0.82900
C134        C  0.87393219  0.60974528  0.16117139     0.96400
O135        O  0.86154034  0.56752319  0.16539780    -0.72100
O136        O  0.80643167  0.50462236  0.19342573    -0.75600
Al137      Al  0.80628005  0.53814564  0.14736840     1.49000
C138        C  0.79914953  0.51893033  0.22608196     0.91700
O139        O  0.73514667  0.63794836  0.22061058    -0.81900
O140        O  0.71767370  0.66433023  0.14522178    -0.75400
Al141      Al  0.72705354  0.57829809  0.19670682     1.90100
O142        O  0.79342873  0.67165971  0.19131491    -0.74500
O143        O  0.77198886  0.62397481  0.09563936    -0.74300
O144        O  0.85000135  0.63655147  0.14070402    -0.80000
O145        O  0.81512923  0.56003199  0.09759528    -0.78200
O146        O  0.77137565  0.58692946  0.16270103    -1.14300
O147        O  0.75265526  0.50439293  0.12954265    -0.73500
C148        C  0.71626332  0.49526944  0.14848216     0.97200
C149        C  0.76320050  0.67222402  0.21674623     0.93600
Al150      Al  0.78239557  0.64421205  0.14450795     1.55600
O151        O  0.77104563  0.55277936  0.23178506    -0.78200
C152        C  0.79370614  0.59122379  0.07935265     0.97700
C153        C  0.67867124  0.64502587  0.15276327     0.92600
O154        O  0.67795389  0.60407851  0.16647659    -0.83500
O155        O  0.78979832  0.92722109  0.33580660    -0.82900
C156        C  0.59483042  0.91163941  0.33780820     0.96400
O157        O  0.62064209  0.88288016  0.35527133    -0.72100
O158        O  0.68221917  0.85071454  0.30896765    -0.75600
Al159      Al  0.68863610  0.87909294  0.35568133     1.49000
C160        C  0.71420566  0.84990983  0.28506845     0.91700
O161        O  0.69647815  0.96820435  0.26741621    -0.81900
O162        O  0.71554846  0.01981163  0.37017606    -0.75400
Al163      Al  0.74170278  0.94674676  0.30349567     1.90100
O164        O  0.66201250  0.01567718  0.30722156    -0.74500
O165        O  0.65305594  0.96359109  0.40278708    -0.74300
O166        O  0.60695889  0.95418716  0.33554569    -0.80000
O167        O  0.69412035  0.89875932  0.40535276    -0.78200
O168        O  0.69762360  0.93651803  0.33761211    -1.14300
O169        O  0.75486074  0.86426588  0.35810949    -0.73500
C170        C  0.79197756  0.88775264  0.35167032     0.97200
C171        C  0.67076903  0.00374091  0.27419725     0.93600
Al172      Al  0.66203401  0.98430127  0.35299368     1.55600
O173        O  0.74048681  0.88535117  0.28109447    -0.78200
C174        C  0.67222370  0.93146705  0.42136080     0.97700
C175        C  0.74907288  0.03175671  0.34896309     0.92600
O176        O  0.75583438  0.00987295  0.31887467    -0.83500
O177        O  0.28464949  0.42170566  0.84307756    -0.82900
C178        C  0.08780009  0.41249181  0.84063616     0.96400
O179        O  0.11207415  0.38368247  0.85904687    -0.72100
O180        O  0.17338525  0.34956711  0.81301355    -0.75600
Al181      Al  0.17977549  0.37816060  0.85993639     1.49000
C182        C  0.20627836  0.34793950  0.78982013     0.91700
O183        O  0.19582526  0.46532899  0.77113857    -0.81900
O184        O  0.20945726  0.52097163  0.87271884    -0.75400
Al185      Al  0.23815057  0.44313910  0.80911981     1.90100
O186        O  0.15825079  0.51326170  0.80862251    -0.74500
O187        O  0.14621647  0.46525986  0.90534976    -0.74300
O188        O  0.10128090  0.45461487  0.83770627    -0.80000
O189        O  0.18473821  0.39876753  0.90913674    -0.78200
O190        O  0.19169399  0.43517272  0.84175827    -1.14300
O191        O  0.24499856  0.36057712  0.86358104    -0.73500
C192        C  0.28380850  0.38182228  0.85850318     0.97200
C193        C  0.16891810  0.50037871  0.77614121     0.93600
Al194      Al  0.15643212  0.48430587  0.85532105     1.55600
O195        O  0.23506937  0.38165104  0.78725893    -0.78200
C196        C  0.16383375  0.43268208  0.92442477     0.97700
C197        C  0.24382507  0.53184393  0.85204495     0.92600
O198        O  0.25330806  0.50616257  0.82424608    -0.83500
O199        O  0.20273335  0.01570667  0.67483723    -0.82900
C200        C  0.36862516  0.11466152  0.66930166     0.96400
O201        O  0.35618237  0.07225132  0.67280294    -0.72100
O202        O  0.29983072  0.00645064  0.69548268    -0.75600
Al203      Al  0.30360902  0.04104423  0.65084675     1.49000
C204        C  0.28623609  0.01556892  0.72787220     0.91700
O205        O  0.22123334  0.13586568  0.72135479    -0.81900
O206        O  0.21078537  0.16359299  0.64458917    -0.75400
Al207      Al  0.21762835  0.07652859  0.69567686     1.90100
O208        O  0.28082832  0.17239512  0.69546384    -0.74500
O209        O  0.27116027  0.12568308  0.59785034    -0.74300
O210        O  0.34422278  0.14149805  0.64901216    -0.80000
O211        O  0.31708066  0.06415846  0.60190370    -0.78200
O212        O  0.26524873  0.08778399  0.66473789    -1.14300
O213        O  0.25329566  0.00493379  0.62927399    -0.73500
C214        C  0.21540886  0.99387620  0.64577041     0.97200
C215        C  0.24863469  0.17094554  0.71939651     0.93600
Al216      Al  0.27594533  0.14569871  0.64783717     1.55600
O217        O  0.25814559  0.04961668  0.73338021    -0.78200
C218        C  0.29491262  0.09354457  0.58245689     0.97700
C219        C  0.17179556  0.14315769  0.64975425     0.92600
O220        O  0.17121666  0.10203929  0.66306874    -0.83500
O221        O  0.24783251  0.51096979  0.18765091    -0.82900
C222        C  0.08610302  0.41472907  0.16334130     0.96400
O223        O  0.09738542  0.45719566  0.16880446    -0.72100
O224        O  0.15051699  0.51850896  0.20155214    -0.75600
Al225      Al  0.15219019  0.48852625  0.15353638     1.49000
C226        C  0.15914431  0.50258209  0.23346537     0.91700
O227        O  0.22583576  0.38573951  0.22214835    -0.81900
O228        O  0.24498220  0.36482373  0.14721159    -0.75400
Al229      Al  0.23135327  0.44768968  0.20159323     1.90100
O230        O  0.16753577  0.35364100  0.19168020    -0.74500
O231        O  0.18952853  0.40641481  0.09858941    -0.74300
O232        O  0.11126242  0.38898745  0.14254474    -0.80000
O233        O  0.14487579  0.46928286  0.10279793    -0.78200
O234        O  0.18778328  0.43982623  0.16702175    -1.14300
O235        O  0.20538946  0.52432007  0.13806335    -0.73500
C236        C  0.24077176  0.53363595  0.15812527     0.97200
C237        C  0.19784933  0.35159722  0.21684468     0.93600
Al238      Al  0.17902244  0.38332402  0.14632791     1.55600
O239        O  0.18683337  0.46828342  0.23744950    -0.78200
C240        C  0.16669430  0.43907709  0.08349761     0.97700
C241        C  0.28248102  0.38641058  0.15624093     0.92600
O242        O  0.28035973  0.42734535  0.16990207    -0.83500
O243        O  0.17304721  0.09625570  0.33975813    -0.82900
C244        C  0.36904585  0.12532962  0.34074755     0.96400
O245        O  0.34083151  0.14812256  0.36120153    -0.72100
O246        O  0.27836445  0.17802012  0.31473165    -0.75600
Al247      Al  0.27282870  0.14685644  0.35996325     1.49000
C248        C  0.24622567  0.17857342  0.29095090     0.91700
O249        O  0.26461014  0.06063611  0.26737365    -0.81900
O250        O  0.26011307  0.00221850  0.36585636    -0.75400
Al251      Al  0.22165237  0.07944912  0.30584201     1.90100
O252        O  0.31033830  0.01673391  0.30188120    -0.74500
O253        O  0.31606311  0.06310615  0.40190646    -0.74300
O254        O  0.36076361  0.08253526  0.33350255    -0.80000
O255        O  0.26727151  0.12238702  0.40764672    -0.78200
O256        O  0.26747135  0.09023410  0.33866831    -1.14300
O257        O  0.20625417  0.15950404  0.36256784    -0.73500
C258        C  0.16948413  0.13566618  0.35581527     0.97200
C259        C  0.29581131  0.02898931  0.27036351     0.93600
Al260      Al  0.30866821  0.04500330  0.35009178     1.55600
O261        O  0.22111679  0.14222405  0.28555740    -0.78200
C262        C  0.29137148  0.09029578  0.42207443     0.97700
C263        C  0.22424864  0.99057176  0.34689371     0.92600
O264        O  0.21088682  0.01555534  0.32005706    -0.83500
O265        O  0.39342749  0.70885689  0.84169337    -0.82900
C266        C  0.37732081  0.90277881  0.84124442     0.96400
O267        O  0.35473223  0.87917071  0.86502647    -0.72100
O268        O  0.31960358  0.81940347  0.81856496    -0.75600
Al269      Al  0.35007833  0.81084059  0.86318830     1.49000
C270        C  0.31827941  0.78965185  0.79297736     0.91700
O271        O  0.43714916  0.79837869  0.77142467    -0.81900
O272        O  0.49223973  0.79028326  0.87173614    -0.75400
Al273      Al  0.41469888  0.75655273  0.80909010     1.90100
O274        O  0.48504100  0.83873656  0.80687903    -0.74500
O275        O  0.43437180  0.85191877  0.90444570    -0.74300
O276        O  0.41981463  0.89258800  0.83461031    -0.80000
O277        O  0.37503977  0.80294388  0.91050239    -0.78200
O278        O  0.40638206  0.80206798  0.84210462    -1.14300
O279        O  0.33150134  0.74474658  0.86410212    -0.73500
C280        C  0.35265279  0.70689197  0.85554295     0.97200
C281        C  0.47107157  0.82694062  0.77503486     0.93600
Al282      Al  0.45397719  0.84057834  0.85384779     1.55600
O283        O  0.35273512  0.76190264  0.78756135    -0.78200
C284        C  0.40633613  0.82882353  0.92469347     0.97700
C285        C  0.50202538  0.75342993  0.85322061     0.92600
O286        O  0.47748138  0.74143897  0.82535722    -0.83500
O287        O  0.99936558  0.80032026  0.67015574    -0.82900
C288        C  0.09870033  0.63276261  0.66795609     0.96400
O289        O  0.05718081  0.63510323  0.65454983    -0.72100
O290        O  0.99851804  0.67670082  0.69872485    -0.75600
Al291      Al  0.01594300  0.69035931  0.65024159     1.49000
C292        C  0.99632772  0.70009583  0.72811542     0.91700
O293        O  0.10492714  0.76243243  0.72540650    -0.81900
O294        O  0.11646848  0.78545836  0.61893701    -0.75400
Al295      Al  0.05206185  0.77770419  0.69529917     1.90100
O296        O  0.15463108  0.75026110  0.68030204    -0.74500
O297        O  0.10045514  0.69713958  0.59699407    -0.74300
O298        O  0.12720845  0.66649176  0.66455489    -0.80000
O299        O  0.02428663  0.69805500  0.59871051    -0.78200
O300        O  0.06187037  0.73122605  0.66260461    -1.14300
O301        O  0.96723845  0.73739455  0.64559299    -0.73500
C302        C  0.96578510  0.78094504  0.65309541     0.97200
C303        C  0.14657287  0.75744061  0.71375076     0.93600
Al304      Al  0.11907520  0.72500275  0.64183724     1.55600
O305        O  0.01338739  0.74135901  0.72934013    -0.78200
C306        C  0.06184019  0.69594338  0.58047677     0.97700
C307        C  0.11109395  0.82311105  0.63761551     0.92600
O308        O  0.08875358  0.82289023  0.66808001    -0.83500
O309        O  0.46663505  0.72448210  0.17252304    -0.82900
C310        C  0.36160230  0.89249945  0.16583366     0.96400
O311        O  0.40366639  0.88870317  0.15392082    -0.72100
O312        O  0.45947189  0.85361956  0.20331245    -0.75600
Al313      Al  0.44667751  0.83541564  0.15413589     1.49000
C314        C  0.46731674  0.82873061  0.23124599     0.91700
O315        O  0.36419109  0.76683470  0.23141777    -0.81900
O316        O  0.34896640  0.73495548  0.12563847    -0.75400
Al317      Al  0.41501509  0.74874465  0.19975501     1.90100
O318        O  0.31179233  0.77366238  0.18717161    -0.74500
O319        O  0.36390237  0.82130927  0.10047708    -0.74300
O320        O  0.33458363  0.85728797  0.16638752    -0.80000
O321        O  0.44046540  0.82364640  0.10247382    -0.78200
O322        O  0.40258733  0.79354322  0.16673260    -1.14300
O323        O  0.49812222  0.79043385  0.15315367    -0.73500
C324        C  0.50078768  0.74633500  0.15836677     0.97200
C325        C  0.32194073  0.76763558  0.22049901     0.93600
Al326      Al  0.34504540  0.79683467  0.14647398     1.55600
O327        O  0.45565328  0.78587430  0.23094050    -0.78200
C328        C  0.40272560  0.82492081  0.08415038     0.97700
C329        C  0.35415722  0.69914727  0.14589253     0.92600
O330        O  0.37689155  0.70215486  0.17595566    -0.83500
O331        O  0.07514978  0.81932246  0.33279028    -0.82900
C332        C  0.07424863  0.62294382  0.34122471     0.96400
O333        O  0.10313896  0.64740515  0.36010371    -0.72100
O334        O  0.14158814  0.70241504  0.31176124    -0.75600
Al335      Al  0.11271409  0.71485168  0.35754258     1.49000
C336        C  0.14468470  0.73264394  0.28679711     0.91700
O337        O  0.02541829  0.72350119  0.26754412    -0.81900
O338        O  0.97487327  0.75110033  0.36884522    -0.75400
Al339      Al  0.05059673  0.76954141  0.30235349     1.90100
O340        O  0.97401960  0.69620246  0.30681612    -0.74500
O341        O  0.02589582  0.68528866  0.40231422    -0.74300
O342        O  0.03296922  0.63796288  0.33595354    -0.80000
O343        O  0.09127959  0.72579391  0.40605534    -0.78200
O344        O  0.05675451  0.72695546  0.33774309    -1.14300
O345        O  0.13357489  0.77974591  0.35774557    -0.73500
C346        C  0.11452180  0.81873276  0.34944454     0.97200
C347        C  0.98818500  0.70003304  0.27406442     0.93600
Al348      Al  0.00617637  0.69507316  0.35261972     1.55600
O349        O  0.11158971  0.76128776  0.28108403    -0.78200
C350        C  0.05753008  0.70481511  0.42139646     0.97700
C351        C  0.96554605  0.78433387  0.34676447     0.92600
O352        O  0.98893029  0.78890038  0.31723710    -0.83500
C353        C  0.20885356  0.78634498  0.27009488    -0.10300
C354        C  0.19045701  0.74035000  0.26924049     0.05900
C355        C  0.21870522  0.70289753  0.25660618    -0.04100
C356        C  0.26457859  0.71198256  0.24452655    -0.08500
C357        C  0.28259008  0.75804430  0.24491984     0.05000
C358        C  0.25456105  0.79539032  0.25782002    -0.03500
Br359      Br  0.27643092  0.85939678  0.25677855    -0.03200
H360        H  0.18767792  0.81533108  0.28053960     0.08900
H361        H  0.28513951  0.68355588  0.23243941     0.06900
Br362      Br  0.19454246  0.64009902  0.25158186    -0.03700
C363        C  0.01732402  0.69742932  0.52123819    -0.10300
C364        C  0.06100410  0.69405842  0.53957232     0.05900
C365        C  0.10300190  0.69272900  0.51817995    -0.04100
C366        C  0.10041005  0.69644647  0.47992140    -0.08500
C367        C  0.05700025  0.70084150  0.46186143     0.05000
C368        C  0.01497051  0.70070758  0.48275084    -0.03500
Br369      Br  0.95365369  0.70833280  0.46089788    -0.03200
H370        H  0.98473148  0.69880543  0.53690156     0.08900
H371        H  0.13286256  0.69557181  0.46402101     0.06900
Br372      Br  0.16578773  0.68620999  0.53794829    -0.03700
C373        C  0.36391358  0.83224761  0.98370509    -0.10300
C374        C  0.40734473  0.83319137  0.96527791     0.05900
C375        C  0.44934469  0.83489447  0.98608087    -0.04100
C376        C  0.44708236  0.83320708  0.02476958    -0.08500
C377        C  0.40342062  0.83019262  0.04332867     0.05000
C378        C  0.36130001  0.83095359  0.02206046    -0.03500
Br379      Br  0.29816473  0.82938623  0.04191519    -0.03200
H380        H  0.33134096  0.83182757  0.96795122     0.08900
H381        H  0.47978022  0.83314176  0.04029763     0.06900
Br382      Br  0.51057837  0.83592505  0.96336961    -0.03700
C383        C  0.26950852  0.74334961  0.74987993    -0.10300
C384        C  0.27389782  0.78357661  0.77227177     0.05900
C385        C  0.23363718  0.81266731  0.77814990    -0.04100
C386        C  0.19099390  0.80134678  0.76095965    -0.08500
C387        C  0.18753064  0.76190036  0.73790621     0.05000
C388        C  0.22698556  0.73222238  0.73294464    -0.03500
Br389      Br  0.22539409  0.67517865  0.70410378    -0.03200
H390        H  0.29907481  0.71960627  0.74596257     0.08900
H391        H  0.16097728  0.82470269  0.76423407     0.06900
Br392      Br  0.23294409  0.86888938  0.80823647    -0.03700
C393        C  0.19103730  0.86154659  0.35821412    -0.10300
C394        C  0.14132648  0.86351612  0.35598398     0.05900
C395        C  0.11965901  0.90840993  0.35604130    -0.04100
C396        C  0.14744763  0.94933562  0.35480993    -0.08500
C397        C  0.19700515  0.94704637  0.35480007     0.05000
C398        C  0.21875246  0.90262097  0.35779632    -0.03500
Br399      Br  0.28613486  0.89565394  0.35753724    -0.03200
H400        H  0.20880312  0.82774451  0.35829361     0.08900
H401        H  0.13016988  0.98333753  0.35328072     0.06900
Br402      Br  0.05260527  0.91678025  0.35895877    -0.03700
C403        C  0.37786307  0.95927512  0.20766769    -0.10300
C404        C  0.34577008  0.93676831  0.18402468     0.05900
C405        C  0.29795431  0.95117769  0.18484487    -0.04100
C406        C  0.28275635  0.98480209  0.21106588    -0.08500
C407        C  0.31431000  0.00346134  0.23736092     0.05000
C408        C  0.36252385  0.99139185  0.23448620    -0.03500
Br409      Br  0.40928170  0.01522420  0.26761388    -0.03200
H410        H  0.41464643  0.94878603  0.20757019     0.08900
H411        H  0.24560247  0.99369868  0.21261027     0.06900
Br412      Br  0.25177224  0.92468513  0.15189824    -0.03700
C413        C  0.08774533  0.53538023  0.26331780    -0.10300
C414        C  0.13583764  0.52454901  0.26587946     0.05900
C415        C  0.16048091  0.53723344  0.29833177    -0.04100
C416        C  0.13836459  0.56580079  0.32504625    -0.08500
C417        C  0.09105511  0.58022689  0.32087275     0.05000
C418        C  0.06471125  0.56069335  0.29117727    -0.03500
Br419      Br  0.99757215  0.56712549  0.28569721    -0.03200
H420        H  0.06789877  0.52475632  0.23910581     0.08900
H421        H  0.15925403  0.57919675  0.34789538     0.06900
Br422      Br  0.22585101  0.52198481  0.30540224    -0.03700
C423        C  0.25563915  0.61154329  0.12853650    -0.10300
C424        C  0.27318794  0.57265607  0.14808389     0.05900
C425        C  0.32098077  0.57318014  0.15927284    -0.04100
C426        C  0.34841419  0.61336136  0.15405302    -0.08500
C427        C  0.32951994  0.65408927  0.13810735     0.05000
C428        C  0.28319013  0.65216224  0.12355400    -0.03500
Br429      Br  0.25334026  0.70488668  0.10024903    -0.03200
H430        H  0.21936715  0.61154642  0.11901231     0.08900
H431        H  0.38414076  0.61376844  0.16479713     0.06900
Br432      Br  0.35178556  0.52109540  0.18241075    -0.03700
C433        C  0.20444773  0.22171018  0.24130620    -0.10300
C434        C  0.23478648  0.22320027  0.27194109     0.05900
C435        C  0.24880250  0.26783490  0.28613223    -0.04100
C436        C  0.23401973  0.30888117  0.26874219    -0.08500
C437        C  0.20483597  0.30738491  0.23752247     0.05000
C438        C  0.18919477  0.26294562  0.22414893    -0.03500
Br439      Br  0.14854751  0.25445098  0.18202344    -0.03200
H440        H  0.19232308  0.18809314  0.23051509     0.08900
H441        H  0.24604970  0.34248851  0.27964525     0.06900
Br442      Br  0.28595143  0.27750139  0.33003576    -0.03700
C443        C  0.20925260  0.91118108  0.62188120    -0.10300
C444        C  0.18664839  0.95297284  0.63302700     0.05900
C445        C  0.13700129  0.95266183  0.63669426    -0.04100
C446        C  0.11194629  0.91023961  0.63422638    -0.08500
C447        C  0.13516850  0.86751214  0.62707337     0.05000
C448        C  0.18398543  0.86866933  0.61869229    -0.03500
Br449      Br  0.21948929  0.81276823  0.60753749    -0.03200
H450        H  0.24724856  0.91075681  0.61836050     0.08900
H451        H  0.07437174  0.91025840  0.63995525     0.06900
Br452      Br  0.10129122  0.00887935  0.64546011    -0.03700
C453        C  0.34757814  0.91550834  0.77852521    -0.10300
C454        C  0.35198083  0.93325304  0.81454326     0.05900
C455        C  0.33166689  0.97731090  0.82305978    -0.04100
C456        C  0.30886469  0.00349376  0.79508975    -0.08500
C457        C  0.30511002  0.98576666  0.75859831     0.05000
C458        C  0.32353727  0.94016974  0.75113842    -0.03500
Br459      Br  0.31543897  0.90714280  0.70487493    -0.03200
H460        H  0.36230523  0.88127004  0.77172191     0.08900
H461        H  0.29521152  0.03819424  0.80166732     0.06900
Br462      Br  0.33683220  0.00375433  0.87170867    -0.03700
C463        C  0.25348079  0.10136979  0.52252957    -0.10300
C464        C  0.29505286  0.08970859  0.54144876     0.05900
C465        C  0.33456539  0.07424331  0.52073685    -0.04100
C466        C  0.33240064  0.07289001  0.48188926    -0.08500
C467        C  0.29121670  0.08634357  0.46303246     0.05000
C468        C  0.25097889  0.09919185  0.48397843    -0.03500
Br469      Br  0.19048412  0.11181956  0.46196554    -0.03200
H470        H  0.22226378  0.11166882  0.53792627     0.08900
H471        H  0.36355691  0.06281065  0.46636060     0.06900
Br472      Br  0.39335159  0.05764939  0.54357633    -0.03700
C473        C  0.13480548  0.57485226  0.75631579    -0.10300
C474        C  0.15055315  0.53017282  0.74555337     0.05900
C475        C  0.14699866  0.51739994  0.70767522    -0.04100
C476        C  0.12809979  0.54992120  0.68193800    -0.08500
C477        C  0.11256977  0.59478770  0.69371163     0.05000
C478        C  0.11623189  0.60626938  0.73147496    -0.03500
Br479      Br  0.09772510  0.66466455  0.75291043    -0.03200
H480        H  0.13739984  0.58649116  0.78484599     0.08900
H481        H  0.12647685  0.54057547  0.65289134     0.06900
Br482      Br  0.16670448  0.45679445  0.68983757    -0.03700
C483        C  0.28924405  0.65460967  0.88256989    -0.10300
C484        C  0.32797599  0.66031768  0.85845087     0.05900
C485        C  0.33903783  0.62253931  0.83416869    -0.04100
C486        C  0.31285328  0.58093166  0.83495129    -0.08500
C487        C  0.27325900  0.57535176  0.85797566     0.05000
C488        C  0.26177756  0.61296798  0.88239577    -0.03500
Br489      Br  0.20792236  0.61141901  0.91460237    -0.03200
H490        H  0.27931978  0.68327872  0.90091616     0.08900
H491        H  0.32258830  0.55330450  0.81558679     0.06900
Br492      Br  0.38478798  0.62602072  0.79497177    -0.03700
C493        C  0.16228227  0.47842184  0.98333849    -0.10300
C494        C  0.16081614  0.43452812  0.96508922     0.05900
C495        C  0.15867234  0.39297729  0.98622119    -0.04100
C496        C  0.16050896  0.39581267  0.02461119    -0.08500
C497        C  0.16348573  0.43943155  0.04289504     0.05000
C498        C  0.16358691  0.48121055  0.02199965    -0.03500
Br499      Br  0.16902491  0.54257953  0.04431832    -0.03200
H500        H  0.16398089  0.51062643  0.96747309     0.08900
H501        H  0.15905956  0.36350486  0.04038245     0.06900
Br502      Br  0.15065117  0.33124219  0.96486541    -0.03700
C503        C  0.19103835  0.22853351  0.74380455    -0.10300
C504        C  0.23834518  0.21380806  0.74107417     0.05900
C505        C  0.27442177  0.24424308  0.75328967    -0.04100
C506        C  0.26297843  0.28865554  0.76741121    -0.08500
C507        C  0.21578542  0.30357923  0.76989865     0.05000
C508        C  0.17952213  0.27300213  0.75808369    -0.03500
Br509      Br  0.11420869  0.29118212  0.75860423    -0.03200
H510        H  0.16296150  0.20616317  0.73329548     0.08900
H511        H  0.29116831  0.31107532  0.77767153     0.06900
Br512      Br  0.33960979  0.22617577  0.75306204    -0.03700
C513        C  0.53992468  0.84639161  0.31968108    -0.10300
C514        C  0.55317419  0.89401863  0.31642608     0.05900
C515        C  0.53194174  0.92085032  0.28796416    -0.04100
C516        C  0.50211697  0.89902856  0.26229985    -0.08500
C517        C  0.49237269  0.85048605  0.26347851     0.05000
C518        C  0.51001541  0.82450512  0.29376310    -0.03500
Br519      Br  0.49766044  0.75857387  0.30081097    -0.03200
H520        H  0.55505813  0.82508277  0.34139018     0.08900
H521        H  0.48816827  0.92024441  0.24006721     0.06900
Br522      Br  0.54402608  0.98656273  0.27934639    -0.03700
C523        C  0.87575584  0.88200179  0.33490628    -0.10300
C524        C  0.83900778  0.86662583  0.35778807     0.05900
C525        C  0.84691926  0.82771982  0.38109777    -0.04100
C526        C  0.88978322  0.80313279  0.37892458    -0.08500
C527        C  0.92489020  0.81614987  0.35339672     0.05000
C528        C  0.91785873  0.85721950  0.33201347    -0.03500
Br529      Br  0.96154140  0.88123830  0.29593433    -0.03200
H530        H  0.87064480  0.91183427  0.31682431     0.08900
H531        H  0.89456022  0.77226853  0.39596509     0.06900
Br532      Br  0.80076173  0.80598596  0.41595486    -0.03700
C533        C  0.70894886  0.72274535  0.25244443    -0.10300
C534        C  0.75451251  0.71620239  0.23789913     0.05900
C535        C  0.78609298  0.75479873  0.23795324    -0.04100
C536        C  0.77132479  0.79852944  0.25182010    -0.08500
C537        C  0.72530943  0.80517987  0.26561372     0.05000
C538        C  0.69396928  0.76647287  0.26561950    -0.03500
Br539      Br  0.62923982  0.77050803  0.28104810    -0.03200
H540        H  0.68348022  0.69423682  0.25177001     0.08900
H541        H  0.79654725  0.82725384  0.25256599     0.06900
Br542      Br  0.84998592  0.75068066  0.22035680    -0.03700
C543        C  0.89286614  0.62828507  0.22491541    -0.10300
C544        C  0.90729734  0.63013699  0.18810412     0.05900
C545        C  0.94877871  0.65469446  0.17905369    -0.04100
C546        C  0.97520628  0.67706843  0.20719899    -0.08500
C547        C  0.95991643  0.67641324  0.24435366     0.05000
C548        C  0.91748951  0.65160700  0.25273966    -0.03500
Br549      Br  0.88762350  0.64832583  0.30060804    -0.03200
H550        H  0.86035707  0.61015491  0.23194763     0.08900
H551        H  0.00752001  0.69522918  0.19993799     0.06900
Br552      Br  0.97103201  0.65677991  0.12914186    -0.03700
C553        C  0.59092103  0.64749120  0.14416621    -0.10300
C554        C  0.63376488  0.67201609  0.14813990     0.05900
C555        C  0.63207050  0.72191800  0.15107062    -0.04100
C556        C  0.58848358  0.74530240  0.15218373    -0.08500
C557        C  0.54563648  0.72048464  0.15048549     0.05000
C558        C  0.54731772  0.67103776  0.14496198    -0.03500
Br559      Br  0.49166433  0.63339049  0.13745697    -0.03200
H560        H  0.59123724  0.60956097  0.14086998     0.08900
H561        H  0.58820865  0.78316464  0.15631601     0.06900
Br562      Br  0.68706636  0.76103314  0.15701541    -0.03700
C563        C  0.66505927  0.89316494  0.52152135    -0.10300
C564        C  0.66822746  0.93646657  0.54062365     0.05900
C565        C  0.67124981  0.97841571  0.51968043    -0.04100
C566        C  0.67140192  0.97596734  0.48093125    -0.08500
C567        C  0.66940190  0.93249395  0.46220120     0.05000
C568        C  0.66570356  0.89081463  0.48296717    -0.03500
Br569      Br  0.65907863  0.82950034  0.46061853    -0.03200
H570        H  0.66210787  0.86047519  0.53663289     0.08900
H571        H  0.67445938  0.00827243  0.46530695     0.06900
Br572      Br  0.67754340  0.04015081  0.54135942    -0.03700
C573        C  0.54216301  0.90900088  0.71407644    -0.10300
C574        C  0.55829994  0.87845846  0.68623008     0.05900
C575        C  0.54073734  0.83188863  0.68524225    -0.04100
C576        C  0.50937726  0.81630134  0.71288188    -0.08500
C577        C  0.49626563  0.84621881  0.74237296     0.05000
C578        C  0.51199714  0.89345072  0.74200042    -0.03500
Br579      Br  0.49523606  0.93882229  0.77939014    -0.03200
H580        H  0.55604136  0.94397091  0.71591005     0.08900
H581        H  0.49764707  0.78002606  0.71255932     0.06900
Br582      Br  0.55990460  0.78803739  0.64758570    -0.03700
C583        C  0.84306548  0.82372872  0.62318041    -0.10300
C584        C  0.84160814  0.86783836  0.64124134     0.05900
C585        C  0.88307835  0.88446256  0.65875368    -0.04100
C586        C  0.92338306  0.85662041  0.65929359    -0.08500
C587        C  0.92385868  0.81071263  0.64441647     0.05000
C588        C  0.88338451  0.79485287  0.62499060    -0.03500
Br589      Br  0.87944738  0.73392165  0.60178104    -0.03200
H590        H  0.81157956  0.81004778  0.60988965     0.08900
H591        H  0.95389409  0.87043923  0.67382626     0.06900
Br592      Br  0.88757842  0.94287185  0.68582882    -0.03700
C593        C  0.79376089  0.55253122  0.97853075    -0.10300
C594        C  0.79716813  0.59627744  0.96083406     0.05900
C595        C  0.80075082  0.63773646  0.98240789    -0.04100
C596        C  0.79980612  0.63490975  0.02085876    -0.08500
C597        C  0.79566143  0.59133993  0.03864255     0.05000
C598        C  0.79266938  0.54975097  0.01714980    -0.03500
Br599      Br  0.78297060  0.48883814  0.03861588    -0.03200
H600        H  0.79032469  0.52050983  0.96223739     0.08900
H601        H  0.80276995  0.66708055  0.03703464     0.06900
Br602      Br  0.80941274  0.69911726  0.96130160    -0.03700
C603        C  0.70290345  0.74405047  0.76832864    -0.10300
C604        C  0.74897228  0.72571771  0.76790285     0.05900
C605        C  0.78656786  0.75454234  0.75632673    -0.04100
C606        C  0.77769188  0.80068892  0.74525894    -0.08500
C607        C  0.73163898  0.81870768  0.74523919     0.05000
C608        C  0.69406492  0.79010916  0.75688780    -0.03500
Br609      Br  0.63008943  0.81203880  0.75609093    -0.03200
H610        H  0.67376608  0.72277792  0.77820438     0.08900
H611        H  0.80640164  0.82151369  0.73406914     0.06900
Br612      Br  0.84966457  0.73122912  0.75131748    -0.03700
C613        C  0.93540473  0.61042197  0.79023999    -0.10300
C614        C  0.91406492  0.63931453  0.81705975     0.05900
C615        C  0.92729646  0.68759922  0.81811478    -0.04100
C616        C  0.95665358  0.70625730  0.79032685    -0.08500
C617        C  0.97315420  0.67798722  0.76096223     0.05000
C618        C  0.96429338  0.62878869  0.76255977    -0.03500
Br619      Br  0.98898584  0.58320791  0.72793331    -0.03200
H620        H  0.92752714  0.57335092  0.78930523     0.08900
H621        H  0.96416766  0.74366664  0.79054390     0.06900
Br622      Br  0.90484848  0.73113739  0.85500865    -0.03700
C623        C  0.58858429  0.65194856  0.85814533    -0.10300
C624        C  0.63180272  0.67615557  0.86066404     0.05900
C625        C  0.63067879  0.72569425  0.86720884    -0.04100
C626        C  0.58745019  0.74965995  0.86772892    -0.08500
C627        C  0.54487848  0.72574483  0.86175817     0.05000
C628        C  0.54553435  0.67617923  0.85884393    -0.03500
Br629      Br  0.48865882  0.63969013  0.85625535    -0.03200
H630        H  0.58815675  0.61403714  0.85438015     0.08900
H631        H  0.58739403  0.78773685  0.87037513     0.06900
Br632      Br  0.68587843  0.76472933  0.87270521    -0.03700
C633        C  0.08101010  0.24228130  0.63937234    -0.10300
C634        C  0.03884468  0.21880521  0.64842854     0.05900
C635        C  0.04032228  0.16909100  0.65181014    -0.04100
C636        C  0.08357483  0.14527363  0.64994104    -0.08500
C637        C  0.12634377  0.16908946  0.64375100     0.05000
C638        C  0.12421407  0.21823221  0.63670753    -0.03500
Br639      Br  0.17836493  0.25622930  0.62497330    -0.03200
H640        H  0.08088511  0.28012713  0.63563558     0.08900
H641        H  0.08368588  0.10777609  0.65472683     0.06900
Br642      Br  0.98534432  0.13043309  0.65919657    -0.03700
C643        C  0.99609472  0.33381316  0.79323636    -0.10300
C644        C  0.99126085  0.35732449  0.75925710     0.05900
C645        C  0.01325368  0.40212556  0.75549973    -0.04100
C646        C  0.04000991  0.42084304  0.78435469    -0.08500
C647        C  0.04793294  0.39586849  0.81707213     0.05000
C648        C  0.02435988  0.35242710  0.82186418    -0.03500
Br649      Br  0.02943618  0.31694624  0.86660600    -0.03200
H650        H  0.97907914  0.30002386  0.79721705     0.08900
H651        H  0.05800344  0.45401261  0.77968468     0.06900
Br652      Br  0.01387522  0.43945925  0.71115992    -0.03700
C653        C  0.79307418  0.49823370  0.70626243    -0.10300
C654        C  0.81684901  0.50237970  0.74034531     0.05900
C655        C  0.86061274  0.47848379  0.74442663    -0.04100
C656        C  0.87819738  0.45045274  0.71578674    -0.08500
C657        C  0.85263837  0.44308310  0.68327437     0.05000
C658        C  0.81008133  0.46795056  0.67822179    -0.03500
Br659      Br  0.77344205  0.45987711  0.63411400    -0.03200
H660        H  0.75968019  0.51607550  0.70229179     0.08900
H661        H  0.91000628  0.43039861  0.72062500     0.06900
Br662      Br  0.89777453  0.47814584  0.78890352    -0.03700
C663        C  0.74480080  0.12093856  0.64527085    -0.10300
C664        C  0.76886691  0.07778734  0.64358600     0.05900
C665        C  0.81720047  0.07804080  0.63389083    -0.04100
C666        C  0.84195468  0.12078830  0.63194289    -0.08500
C667        C  0.81847678  0.16382478  0.63676478     0.05000
C668        C  0.76894712  0.16363844  0.64131794    -0.03500
Br669      Br  0.73258938  0.22037546  0.64570011    -0.03200
H670        H  0.70737702  0.12168160  0.65150159     0.08900
H671        H  0.87971258  0.12042366  0.62714737     0.06900
Br672      Br  0.85001749  0.02174031  0.62003617    -0.03700
C673        C  0.45494221  0.13408224  0.74882087    -0.10300
C674        C  0.46704705  0.18176789  0.74485749     0.05900
C675        C  0.45215217  0.20521469  0.71268571    -0.04100
C676        C  0.42300163  0.18172851  0.68679052    -0.08500
C677        C  0.40871923  0.13443218  0.69184142     0.05000
C678        C  0.42742863  0.11007645  0.72266037    -0.03500
Br679      Br  0.41532573  0.04479700  0.73320345    -0.03200
H680        H  0.46548750  0.11549613  0.77341743     0.08900
H681        H  0.40934212  0.20150905  0.66366105     0.06900
Br682      Br  0.46507573  0.27080581  0.70527615    -0.03700
C683        C  0.41447737  0.35385943  0.86788988    -0.10300
C684        C  0.41361097  0.30464842  0.86382095     0.05900
C685        C  0.36988593  0.28104223  0.86378694    -0.04100
C686        C  0.32799838  0.30697716  0.86499231    -0.08500
C687        C  0.32855488  0.35657714  0.86636103     0.05000
C688        C  0.37245414  0.37987858  0.86980799    -0.03500
Br689      Br  0.37737996  0.44673608  0.87752955    -0.03200
H690        H  0.44800594  0.37218856  0.86877676     0.08900
H691        H  0.29485947  0.28815475  0.86231775     0.06900
Br692      Br  0.36496959  0.21392916  0.85756586    -0.03700
C693        C  0.71892269  0.22142803  0.76952168    -0.10300
C694        C  0.68646875  0.25872758  0.77282947     0.05900
C695        C  0.70019322  0.30433887  0.76138990    -0.04100
C696        C  0.74490549  0.31120436  0.74613087    -0.08500
C697        C  0.77680298  0.27380143  0.74270440     0.05000
C698        C  0.76368589  0.22861478  0.75452139    -0.03500
Br699      Br  0.80409848  0.17490082  0.74808934    -0.03200
H700        H  0.70936096  0.18632302  0.77850302     0.08900
H701        H  0.75453334  0.34579102  0.73600327     0.06900
Br702      Br  0.66129410  0.35942404  0.76684369    -0.03700
C703        C  0.66657435  0.04256565  0.79233520    -0.10300
C704        C  0.63950228  0.03145464  0.76063767     0.05900
C705        C  0.59259143  0.04872574  0.75910760    -0.04100
C706        C  0.57459610  0.07589662  0.78805019    -0.08500
C707        C  0.60238535  0.09017208  0.81825957     0.05000
C708        C  0.64883405  0.07210963  0.82065553    -0.03500
Br709      Br  0.69008651  0.08668085  0.86123383    -0.03200
H710        H  0.70244258  0.02970889  0.79455968     0.08900
H711        H  0.53922520  0.08914331  0.78511382     0.06900
Br712      Br  0.55114231  0.04292333  0.71715208    -0.03700
C713        C  0.63927998  0.45890378  0.85803974    -0.10300
C714        C  0.68886499  0.45640694  0.85833855     0.05900
C715        C  0.71032004  0.41222633  0.86387882    -0.04100
C716        C  0.68245696  0.37165305  0.86754518    -0.08500
C717        C  0.63275709  0.37341296  0.86520623     0.05000
C718        C  0.61123400  0.41822790  0.86176393    -0.03500
Br719      Br  0.54398518  0.42669788  0.86190098    -0.03200
H720        H  0.62221511  0.49269412  0.85420068     0.08900
H721        H  0.70025518  0.33799103  0.86960203     0.06900
Br722      Br  0.77756444  0.40396369  0.86158969    -0.03700
C723        C  0.03981004  0.16786178  0.34608757    -0.10300
C724        C  0.03949075  0.21358280  0.36130546     0.05900
C725        C  0.07940576  0.22874610  0.38159006    -0.04100
C726        C  0.12018623  0.20070209  0.38215584    -0.08500
C727        C  0.12223609  0.15707139  0.36331090     0.05000
C728        C  0.08014668  0.13945953  0.34718115    -0.03500
Br729      Br  0.07483903  0.07858986  0.32381625    -0.03200
H730        H  0.00883864  0.15466269  0.33175920     0.08900
H731        H  0.15139452  0.21450987  0.39577088     0.06900
Br732      Br  0.08266242  0.28872106  0.40643821    -0.03700
C733        C  0.99757955  0.33079756  0.20841051    -0.10300
C734        C  0.99687557  0.34990085  0.24452059     0.05900
C735        C  0.02125181  0.39264863  0.25129498    -0.04100
C736        C  0.04632688  0.41397885  0.22312334    -0.08500
C737        C  0.04952827  0.39403709  0.18770833     0.05000
C738        C  0.02431722  0.35213883  0.18017304    -0.03500
Br739      Br  0.02538848  0.32280588  0.13228849    -0.03200
H740        H  0.97897045  0.29827880  0.20251198     0.08900
H741        H  0.06644411  0.44498797  0.23002617     0.06900
Br742      Br  0.02459198  0.42491363  0.29823282    -0.03700
C743        C  0.94622309  0.32704322  0.48101715    -0.10300
C744        C  0.90297564  0.32823652  0.46222656     0.05900
C745        C  0.86058923  0.33020111  0.48252951    -0.04100
C746        C  0.86205686  0.33026487  0.52088841    -0.08500
C747        C  0.90509712  0.32791602  0.54013349     0.05000
C748        C  0.94779194  0.32632885  0.51965872    -0.03500
Br749      Br  0.00942750  0.32147792  0.54161541    -0.03200
H750        H  0.97894112  0.32509341  0.46552337     0.08900
H751        H  0.82882165  0.33183925  0.53567451     0.06900
Br752      Br  0.79922671  0.33450111  0.45999279    -0.03700
C753        C  0.88971667  0.45029941  0.28206117    -0.10300
C754        C  0.86488806  0.44003300  0.31466976     0.05900
C755        C  0.81992600  0.46095720  0.31965833    -0.04100
C756        C  0.79974578  0.48814582  0.29123726    -0.08500
C757        C  0.82339576  0.49496206  0.25744990     0.05000
C758        C  0.86982991  0.47717511  0.25388333    -0.03500
Br759      Br  0.90927389  0.48808337  0.21164879    -0.03200
H760        H  0.92425096  0.43518784  0.27726783     0.08900
H761        H  0.76465678  0.50256564  0.29508819     0.06900
Br762      Br  0.78439458  0.45398135  0.36444443    -0.03700
C763        C  0.75937637  0.11268090  0.37539989    -0.10300
C764        C  0.77902232  0.07344559  0.35721969     0.05900
C765        C  0.82560956  0.07688314  0.34345370    -0.04100
C766        C  0.84969088  0.11970063  0.34528356    -0.08500
C767        C  0.82851358  0.16039919  0.36017054     0.05000
C768        C  0.78348026  0.15594915  0.37697391    -0.03500
Br769      Br  0.75181710  0.20711118  0.40164116    -0.03200
H770        H  0.72400030  0.11050283  0.38667563     0.08900
H771        H  0.88454481  0.12146695  0.33302060     0.06900
Br772      Br  0.85887571  0.02507217  0.32091857    -0.03700
C773        C  0.47878901  0.14912039  0.28269164    -0.10300
C774        C  0.46696003  0.19269000  0.26667595     0.05900
C775        C  0.42693082  0.21678905  0.28026732    -0.04100
C776        C  0.39791370  0.19578398  0.30692376    -0.08500
C777        C  0.40774082  0.15078946  0.32102089     0.05000
C778        C  0.45039432  0.12895108  0.31040120    -0.03500
Br779      Br  0.47297101  0.07394055  0.33522516    -0.03200
H780        H  0.51001096  0.13045003  0.27346445     0.08900
H781        H  0.36572685  0.21358193  0.31483479     0.06900
Br782      Br  0.40646684  0.27574540  0.26026440    -0.03700
C783        C  0.33697961  0.32634513  0.12782786    -0.10300
C784        C  0.32874410  0.36203218  0.15437055     0.05900
C785        C  0.36369328  0.37071429  0.18149487    -0.04100
C786        C  0.40623249  0.34653239  0.18021467    -0.08500
C787        C  0.41448699  0.31058499  0.15428475     0.05000
C788        C  0.37925587  0.30018376  0.12791350    -0.03500
Br789      Br  0.38750259  0.25182199  0.09120950    -0.03200
H790        H  0.31019514  0.31826867  0.10736084     0.08900
H791        H  0.43212695  0.35392520  0.20155948     0.06900
Br792      Br  0.35425984  0.40877423  0.22505552    -0.03700
C793        C  0.59486944  0.18592190  0.98549757    -0.10300
C794        C  0.55378403  0.19846884  0.96656625     0.05900
C795        C  0.51192186  0.20669583  0.98668559    -0.04100
C796        C  0.51250381  0.20465496  0.02537413    -0.08500
C797        C  0.55423231  0.19393736  0.04462275     0.05000
C798        C  0.59542537  0.18274414  0.02396256    -0.03500
Br799      Br  0.65388095  0.16183329  0.04548545    -0.03200
H800        H  0.62688615  0.17832680  0.97013465     0.08900
H801        H  0.48056504  0.21329060  0.04044607     0.06900
Br802      Br  0.45407714  0.22473749  0.96314048    -0.03700
C803        C  0.71226371  0.23467162  0.24186355    -0.10300
C804        C  0.68203685  0.27363715  0.24030890     0.05900
C805        C  0.69759087  0.31769759  0.25311860    -0.04100
C806        C  0.74344029  0.32228729  0.26687241    -0.08500
C807        C  0.77417121  0.28322824  0.26824565     0.05000
C808        C  0.75757533  0.23867718  0.25635463    -0.03500
Br809      Br  0.79281309  0.18107068  0.26069693    -0.03200
H810        H  0.70085934  0.20092090  0.23083872     0.08900
H811        H  0.75507510  0.35660383  0.27659205     0.06900
Br812      Br  0.65867780  0.37285634  0.24991598    -0.03700
C813        C  0.64501763  0.08221225  0.25645700    -0.10300
C814        C  0.65254353  0.03554527  0.24517055     0.05900
C815        C  0.63832402  0.02177931  0.20917345    -0.04100
C816        C  0.61920217  0.05574246  0.18491482    -0.08500
C817        C  0.61240537  0.10254282  0.19697318     0.05000
C818        C  0.62344429  0.11442315  0.23371826    -0.03500
Br819      Br  0.60530081  0.17230722  0.25684610    -0.03200
H820        H  0.65434405  0.09379294  0.28414021     0.08900
H821        H  0.60956230  0.04565306  0.15698949     0.06900
Br822      Br  0.64068764  0.95730622  0.19317801    -0.03700
C823        C  0.60807081  0.41679819  0.14192047    -0.10300
C824        C  0.62767666  0.37496222  0.12780448     0.05900
C825        C  0.67410064  0.37636016  0.11341704    -0.04100
C826        C  0.70149510  0.41733031  0.11786322    -0.08500
C827        C  0.68360454  0.45698465  0.13675839     0.05000
C828        C  0.63541994  0.45724648  0.14688011    -0.03500
Br829      Br  0.60460016  0.51047770  0.16931814    -0.03200
H830        H  0.57212761  0.41686145  0.15224292     0.08900
H831        H  0.73803233  0.41682324  0.10898749     0.06900
Br832      Br  0.70427713  0.32240309  0.09154624    -0.03700
loop_ 
_geom_bond_atom_site_label_1 
_geom_bond_atom_site_label_2 
_geom_bond_distance 
_geom_bond_site_symmetry_2 
_ccdc_geom_bond_type 
O1           C16   1.257       .  A
O1           Al9   1.867       .  S
C2           O12   1.259       .  A
C2            O3   1.269       .  A
C2          C817   1.475       .  S
O3           Al5   1.950       .  S
O4            C6   1.258       .  A
O4           Al5   1.901       .  S
Al5          O13   1.914       .  S
Al5          O15   1.937       .  S
Al5          O14   1.794       .  S
C6           O19   1.266       .  A
C6          C774   1.492       .  S
O7           C17   1.263       .  A
O7           Al9   1.909       .  S
O8           C21   1.268       .  A
O8          Al18   1.915       .  S
Al9          O22   1.908       .  S
Al9          O19   1.940       .  S
Al9          O14   1.781       .  S
O10          C17   1.251       .  A
O10         Al18   1.868       .  S
O11          C20   1.251       .  A
O11         Al18   1.882       .  S
O12         Al18   1.873       .  S
O13          C20   1.260       .  A
O14         Al18   1.789       .  S
O15          C16   1.266       .  A
C16         C787   1.480       .  S
C17         C804   1.454       .  S
C20         C797   1.485       .  S
C21          O22   1.267       .  A
C21         C824   1.484       .  S
O23          C38   1.264       .  A
O23         Al31   1.893       .  S
C24          O34   1.263       .  A
C24          O25   1.267       .  A
C24         C754   1.498       .  S
O25         Al27   1.934       .  S
O26          C28   1.250       .  A
O26         Al27   1.858       .  S
Al27         O35   1.864       .  S
Al27         O37   1.933       .  S
Al27         O36   1.772       .  S
C28          O41   1.264       .  A
C28         C807   1.472       .  S
O29          C39   1.266       .  A
O29         Al31   1.925       .  S
O30          C43   1.267       .  A
O30         Al40   1.910       .  S
Al31         O44   1.929       .  S
Al31         O41   1.930       .  S
Al31         O36   1.769       .  S
O32          C39   1.261       .  A
O32         Al40   1.910       .  S
O33          C42   1.262       .  A
O33         Al40   1.922       .  S
O34         Al40   1.898       .  S
O35          C42   1.253       .  A
O36         Al40   1.774       .  S
O37          C38   1.266       .  A
C38         C767   1.491       .  S
C39         C734   1.485       .  S
C42         C744   1.466       .  S
C43          O44   1.271       .  A
C43         C724   1.489   1_655  S
O45          C60   1.265       .  A
O45         Al53   1.914       .  S
C46          O56   1.260       .  A
C46          O47   1.265       .  A
C46         C707   1.498       .  S
O47         Al49   1.938       .  S
O48          C50   1.254       .  A
O48         Al49   1.867       .  S
Al49         O57   1.887       .  S
Al49         O59   1.926       .  S
Al49         O58   1.787       .  S
C50          O63   1.262       .  A
C50         C694   1.474       .  S
O51          C61   1.266       .  A
O51         Al53   1.936       .  S
O52          C65   1.262       .  A
O52         Al62   1.894       .  S
Al53         O66   1.923       .  S
Al53         O63   1.920       .  S
Al53         O58   1.787       .  S
O54          C61   1.260       .  A
O54         Al62   1.905       .  S
O55          C64   1.259       .  A
O55         Al62   1.914       .  S
O56         Al62   1.877       .  S
O57          C64   1.258       .  A
O58         Al62   1.787       .  S
O59          C60   1.267       .  A
C60         C717   1.500       .  S
C61         C674   1.493       .  S
C64         C794   1.473       .  S
C65          O66   1.266       .  A
C65         C684   1.473       .  S
O67          C82   1.258       .  A
O67         Al75   1.890       .  S
C68          O78   1.255       .  A
C68          O69   1.269       .  A
C68         C657   1.477       .  S
O69         Al71   1.942       .  S
O70          C72   1.249       .  A
O70         Al71   1.860       .  S
Al71         O79   1.882       .  S
Al71         O81   1.930       .  S
Al71         O80   1.786       .  S
C72          O85   1.266       .  A
C72         C644   1.495       .  S
O73          C83   1.260       .  A
O73         Al75   1.906       .  S
O74          C87   1.265       .  A
O74         Al84   1.904       .  S
Al75         O88   1.926       .  S
Al75         O85   1.946       .  S
Al75         O80   1.790       .  S
O76          C83   1.252       .  A
O76         Al84   1.870       .  S
O77          C86   1.258       .  A
O77         Al84   1.893       .  S
O78         Al84   1.874       .  S
O79          C86   1.251       .  A
O80         Al84   1.794       .  S
O81          C82   1.266       .  A
C82         C634   1.497   1_655  S
C83         C697   1.456       .  S
C86         C747   1.481       .  S
C87          O88   1.267       .  A
C87         C667   1.476       .  S
O89         C104   1.268       .  A
O89         Al97   1.917       .  S
C90         O100   1.263       .  A
C90          O91   1.260       .  A
C90         C614   1.501       .  S
O91         Al93   1.922       .  S
O92          C94   1.254       .  A
O92         Al93   1.875       .  S
Al93        O101   1.875       .  S
Al93        O103   1.908       .  S
Al93        O102   1.780       .  S
C94         O107   1.265       .  A
C94         C604   1.468       .  S
O95         C105   1.268       .  A
O95         Al97   1.937       .  S
O96         C109   1.267       .  A
O96        Al106   1.913       .  S
Al97        O110   1.934       .  S
Al97        O107   1.931       .  S
Al97        O102   1.781       .  S
O98         C105   1.259       .  A
O98        Al106   1.902       .  S
O99         C108   1.264       .  A
O99        Al106   1.926       .  S
O100       Al106   1.909       .  S
O101        C108   1.256       .  A
O102       Al106   1.778       .  S
O103        C104   1.260       .  A
C104        C624   1.493       .  S
C105        C654   1.493       .  S
C108        C594   1.473       .  S
C109        O110   1.269       .  A
C109        C714   1.488       .  S
O111        C126   1.263       .  A
O111       Al119   1.902   1_545  S
C112        O122   1.259       .  A
C112        O113   1.268       .  A
C112        C574   1.486       .  S
O113       Al115   1.930       .  S
O114        C116   1.252   1_565  A
O114       Al115   1.885       .  S
Al115       O123   1.899       .  S
Al115       O125   1.922   1_565  S
Al115       O124   1.786       .  S
C116        O129   1.260   1_545  A
C116        C704   1.499       .  S
O117        C127   1.265       .  A
O117       Al119   1.919       .  S
O118        C131   1.267       .  A
O118       Al128   1.917       .  S
Al119       O132   1.899       .  S
Al119       O129   1.929       .  S
Al119       O124   1.791       .  S
O120        C127   1.254       .  A
O120       Al128   1.869       .  S
O121        C130   1.256       .  A
O121       Al128   1.895       .  S
O122       Al128   1.889       .  S
O123        C130   1.254       .  A
O124       Al128   1.796       .  S
O125        C126   1.267       .  A
C126        C664   1.486       .  S
C127        C607   1.454       .  S
C130        C564   1.491       .  S
C131        O132   1.261       .  A
C131        C584   1.484       .  S
O133        C148   1.268       .  A
O133       Al141   1.925       .  S
C134        O144   1.263       .  A
C134        O135   1.258       .  A
C134        C544   1.472       .  S
O135       Al137   1.887       .  S
O136        C138   1.263       .  A
O136       Al137   1.924       .  S
Al137       O145   1.925       .  S
Al137       O147   1.905       .  S
Al137       O146   1.786       .  S
C138        O151   1.263       .  A
C138        C757   1.495       .  S
O139        C149   1.264       .  A
O139       Al141   1.909       .  S
O140        C153   1.263       .  A
O140       Al150   1.920       .  S
Al141       O154   1.918       .  S
Al141       O151   1.924       .  S
Al141       O146   1.775       .  S
O142        C149   1.256       .  A
O142       Al150   1.885       .  S
O143        C152   1.258       .  A
O143       Al150   1.878       .  S
O144       Al150   1.931       .  S
O145        C152   1.263       .  A
O146       Al150   1.785       .  S
O147        C148   1.265       .  A
C148        C827   1.486       .  S
C149        C534   1.480       .  S
C152        C597   1.474       .  S
C153        O154   1.267       .  A
C153        C554   1.495       .  S
O155        C170   1.264       .  A
O155       Al163   1.881       .  S
C156        O166   1.258       .  A
C156        O157   1.268       .  A
C156        C514   1.494       .  S
O157       Al159   1.928       .  S
O158        C160   1.252       .  A
O158       Al159   1.875       .  S
Al159       O167   1.884       .  S
Al159       O169   1.924       .  S
Al159       O168   1.778       .  S
C160        O173   1.260       .  A
C160        C537   1.481       .  S
O161        C171   1.266   1_565  A
O161       Al163   1.931       .  S
O162        C175   1.268       .  A
O162       Al172   1.920   1_545  S
Al163       O176   1.914   1_565  S
Al163       O173   1.916       .  S
Al163       O168   1.780       .  S
O164        C171   1.264       .  A
O164       Al172   1.886   1_545  S
O165        C174   1.260       .  A
O165       Al172   1.916       .  S
O166       Al172   1.884       .  S
O167        C174   1.254       .  A
O168       Al172   1.776       .  S
O169        C170   1.266       .  A
C170        C524   1.478       .  S
C171        C814   1.482       .  S
C174        C567   1.480       .  S
C175        O176   1.264       .  A
C175        C764   1.484       .  S
O177        C192   1.265       .  A
O177       Al185   1.904       .  S
C178        O188   1.259       .  A
C178        O179   1.262       .  A
C178        C647   1.489       .  S
O179       Al181   1.924       .  S
O180        C182   1.254       .  A
O180       Al181   1.885       .  S
Al181       O189   1.875       .  S
Al181       O191   1.918       .  S
Al181       O190   1.782       .  S
C182        O195   1.260       .  A
C182        C507   1.471       .  S
O183        C193   1.265       .  A
O183       Al185   1.933       .  S
O184        C197   1.266       .  A
O184       Al194   1.929       .  S
Al185       O198   1.915       .  S
Al185       O195   1.912       .  S
Al185       O190   1.783       .  S
O186        C193   1.265       .  A
O186       Al194   1.885       .  S
O187        C196   1.261       .  A
O187       Al194   1.914       .  S
O188       Al194   1.883       .  S
O189        C196   1.255       .  A
O190       Al194   1.781       .  S
O191        C192   1.267       .  A
C192        C687   1.484       .  S
C193        C474   1.491       .  S
C196        C494   1.474       .  S
C197        O198   1.266       .  A
C197        C487   1.503       .  S
O199        C214   1.268   1_545  A
O199       Al207   1.925       .  S
C200        O210   1.267       .  A
C200        O201   1.261       .  A
C200        C677   1.504       .  S
O201       Al203   1.902       .  S
O202        C204   1.258       .  A
O202       Al203   1.899       .  S
Al203       O211   1.930       .  S
Al203       O213   1.917       .  S
Al203       O212   1.784       .  S
C204        O217   1.266       .  A
C204        C457   1.500   1_545  S
O205        C215   1.264       .  A
O205       Al207   1.919       .  S
O206        C219   1.261       .  A
O206       Al216   1.918       .  S
Al207       O220   1.912       .  S
Al207       O217   1.943       .  S
Al207       O212   1.782       .  S
O208        C215   1.258       .  A
O208       Al216   1.882       .  S
O209        C218   1.260       .  A
O209       Al216   1.896       .  S
O210       Al216   1.938       .  S
O211        C218   1.262       .  A
O212       Al216   1.783       .  S
O213        C214   1.268   1_545  A
C214        C444   1.488       .  S
C215        C504   1.471       .  S
C218        C464   1.487       .  S
C219        O220   1.265       .  A
C219        C637   1.500       .  S
O221        C236   1.267       .  A
O221       Al229   1.925       .  S
C222        O232   1.265       .  A
C222        O223   1.260       .  A
C222        C737   1.483       .  S
O223       Al225   1.873       .  S
O224        C226   1.267       .  A
O224       Al225   1.929       .  S
Al225       O233   1.922       .  S
Al225       O235   1.902       .  S
Al225       O234   1.782       .  S
C226        O239   1.259       .  A
C226        C414   1.479       .  S
O227        C237   1.265       .  A
O227       Al229   1.920       .  S
O228        C241   1.267       .  A
O228       Al238   1.941       .  S
Al229       O242   1.888       .  S
Al229       O239   1.898       .  S
Al229       O234   1.770       .  S
O230        C237   1.253       .  A
O230       Al238   1.878       .  S
O231        C240   1.258       .  A
O231       Al238   1.875       .  S
O232       Al238   1.930       .  S
O233        C240   1.263       .  A
O234       Al238   1.781       .  S
O235        C236   1.264       .  A
C236        C424   1.485       .  S
C237        C437   1.479       .  S
C240        C497   1.472       .  S
C241        O242   1.260       .  A
C241        C784   1.483       .  S
O243        C258   1.260       .  A
O243       Al251   1.902       .  S
C244        O254   1.262       .  A
C244        O245   1.264       .  A
C244        C777   1.496       .  S
O245       Al247   1.926       .  S
O246        C248   1.253       .  A
O246       Al247   1.872       .  S
Al247       O255   1.871       .  S
Al247       O257   1.921       .  S
Al247       O256   1.783       .  S
C248        O261   1.266       .  A
C248        C434   1.481       .  S
O249        C259   1.265       .  A
O249       Al251   1.921       .  S
O250        C263   1.268   1_545  A
O250       Al260   1.923       .  S
Al251       O264   1.912       .  S
Al251       O261   1.931       .  S
Al251       O256   1.784       .  S
O252        C259   1.263       .  A
O252       Al260   1.915       .  S
O253        C262   1.268       .  A
O253       Al260   1.951       .  S
O254       Al260   1.917       .  S
O255        C262   1.255       .  A
O256       Al260   1.786       .  S
O257        C258   1.264       .  A
C258        C727   1.494       .  S
C259        C407   1.487       .  S
C262        C467   1.487       .  S
C263        O264   1.264   1_565  A
C263        C397   1.485       .  S
O265        C280   1.260       .  A
O265       Al273   1.899       .  S
C266        O276   1.260       .  A
C266        O267   1.267       .  A
C266        C454   1.486       .  S
O267       Al269   1.944       .  S
O268        C270   1.249       .  A
O268       Al269   1.848       .  S
Al269       O277   1.867       .  S
Al269       O279   1.948       .  S
Al269       O278   1.784       .  S
C270        O283   1.268       .  A
C270        C384   1.472       .  S
O271        C281   1.262       .  A
O271       Al273   1.921       .  S
O272        C285   1.268       .  A
O272       Al282   1.909       .  S
Al273       O286   1.922       .  S
Al273       O283   1.926       .  S
Al273       O278   1.768       .  S
O274        C281   1.261       .  A
O274       Al282   1.913       .  S
O275        C284   1.266       .  A
O275       Al282   1.937       .  S
O276       Al282   1.901       .  S
O277        C284   1.258       .  A
O278       Al282   1.784       .  S
O279        C280   1.266       .  A
C280        C484   1.499       .  S
C281        C577   1.487       .  S
C284        C374   1.473       .  S
C285        O286   1.269       .  A
C285        C627   1.480       .  S
O287        C302   1.258       .  A
O287       Al295   1.864   1_655  S
C288        O298   1.258       .  A
C288        O289   1.274       .  A
C288        C477   1.483       .  S
O289       Al291   1.963       .  S
O290        C292   1.251       .  A
O290       Al291   1.865   1_655  S
Al291       O299   1.893       .  S
Al291       O301   1.928   1_455  S
Al291       O300   1.796       .  S
C292        O305   1.267   1_655  A
C292        C617   1.499       .  S
O293        C303   1.260       .  A
O293       Al295   1.903       .  S
O294        C307   1.269       .  A
O294       Al304   1.912       .  S
Al295       O308   1.926       .  S
Al295       O305   1.948       .  S
Al295       O300   1.787       .  S
O296        C303   1.247       .  A
O296       Al304   1.857       .  S
O297        C306   1.246       .  A
O297       Al304   1.875       .  S
O298       Al304   1.872       .  S
O299        C306   1.252       .  A
O300       Al304   1.794       .  S
O301        C302   1.264       .  A
C302        C587   1.492       .  S
C303        C387   1.457       .  S
C306        C364   1.480       .  S
C307        O308   1.271       .  A
C307        C447   1.484       .  S
O309        C324   1.259       .  A
O309       Al317   1.890       .  S
C310        O320   1.258       .  A
C310        O311   1.271       .  A
C310        C404   1.483       .  S
O311       Al313   1.942       .  S
O312        C314   1.257       .  A
O312       Al313   1.884       .  S
Al313       O321   1.904       .  S
Al313       O323   1.937       .  S
Al313       O322   1.784       .  S
C314        O327   1.260       .  A
C314        C517   1.494       .  S
O315        C325   1.260       .  A
O315       Al317   1.907       .  S
O316        C329   1.266       .  A
O316       Al326   1.909       .  S
Al317       O330   1.907       .  S
Al317       O327   1.920       .  S
Al317       O322   1.786       .  S
O318        C325   1.252       .  A
O318       Al326   1.870       .  S
O319        C328   1.252       .  A
O319       Al326   1.885       .  S
O320       Al326   1.879       .  S
O321        C328   1.258       .  A
O322       Al326   1.789       .  S
O323        C324   1.269       .  A
C324        C557   1.493       .  S
C325        C357   1.449       .  S
C328        C377   1.485       .  S
C329        O330   1.266       .  A
C329        C427   1.481       .  S
O331        C346   1.268       .  A
O331       Al339   1.915       .  S
C332        O342   1.259       .  A
C332        O333   1.269       .  A
C332        C417   1.492       .  S
O333       Al335   1.935       .  S
O334        C336   1.253       .  A
O334       Al335   1.878       .  S
Al335       O343   1.881       .  S
Al335       O345   1.933       .  S
Al335       O344   1.774       .  S
C336        O349   1.259       .  A
C336        C354   1.460       .  S
O337        C347   1.269   1_455  A
O337       Al339   1.943       .  S
O338        C351   1.268       .  A
O338       Al348   1.909   1_655  S
Al339       O352   1.907   1_455  S
Al339       O349   1.904       .  S
Al339       O344   1.775       .  S
O340        C347   1.256       .  A
O340       Al348   1.891   1_655  S
O341        C350   1.257       .  A
O341       Al348   1.905       .  S
O342       Al348   1.885       .  S
O343        C350   1.257       .  A
O344       Al348   1.779       .  S
O345        C346   1.269       .  A
C346        C394   1.497       .  S
C347        C547   1.495       .  S
C350        C367   1.469       .  S
C351        O352   1.264       .  A
C351        C527   1.482       .  S
C353        C354   1.405       .  A
C353        C358   1.392       .  A
C353        H360   1.084       .  S
C354        C355   1.404       .  A
C355        C356   1.395       .  A
C355       Br362   1.915       .  S
C356        C357   1.402       .  A
C356        H361   1.084       .  S
C357        C358   1.401       .  A
C358       Br359   1.919       .  S
C363        C364   1.407       .  A
C363        C368   1.398       .  A
C363        H370   1.083   1_455  S
C364        C365   1.419       .  A
C365        C366   1.391       .  A
C365       Br372   1.926       .  S
C366        C367   1.398       .  A
C366        H371   1.084       .  S
C367        C368   1.410       .  A
C368       Br369   1.921   1_455  S
C373        C374   1.399       .  A
C373        C378   1.390   1_556  A
C373        H380   1.084       .  S
C374        C375   1.408       .  A
C375        C376   1.402   1_556  A
C375       Br382   1.919       .  S
C376        C377   1.410       .  A
C376        H381   1.083       .  S
C377        C378   1.420       .  A
C378       Br379   1.927       .  S
C383        C384   1.400       .  A
C383        C388   1.386       .  A
C383        H390   1.084       .  S
C384        C385   1.423       .  A
C385        C386   1.395       .  A
C385       Br392   1.925       .  S
C386        C387   1.394       .  A
C386        H391   1.084       .  S
C387        C388   1.410       .  A
C388       Br389   1.920       .  S
C393        C394   1.411       .  A
C393        C398   1.405       .  A
C393        H400   1.083       .  S
C394        C395   1.414       .  A
C395        C396   1.403       .  A
C395       Br402   1.916       .  S
C396        C397   1.405       .  A
C396        H401   1.084       .  S
C397        C398   1.408       .  A
C398       Br399   1.918       .  S
C403        C404   1.399       .  A
C403        C408   1.396       .  A
C403        H410   1.083       .  S
C404        C405   1.415       .  A
C405        C406   1.408       .  A
C405       Br412   1.919       .  S
C406        C407   1.406   1_565  A
C406        H411   1.083       .  S
C407        C408   1.411   1_545  A
C408       Br409   1.906   1_565  S
C413        C414   1.399       .  A
C413        C418   1.395       .  A
C413        H420   1.082       .  S
C414        C415   1.410       .  A
C415        C416   1.404       .  A
C415       Br422   1.919       .  S
C416        C417   1.409       .  A
C416        H421   1.083       .  S
C417        C418   1.417       .  A
C418       Br419   1.920   1_455  S
C423        C424   1.406       .  A
C423        C428   1.404       .  A
C423        H430   1.083       .  S
C424        C425   1.413       .  A
C425        C426   1.393       .  A
C425       Br432   1.914       .  S
C426        C427   1.402       .  A
C426        H431   1.084       .  S
C427        C428   1.415       .  A
C428       Br429   1.919       .  S
C433        C434   1.403       .  A
C433        C438   1.397       .  A
C433        H440   1.084       .  S
C434        C435   1.419       .  A
C435        C436   1.392       .  A
C435       Br442   1.923       .  S
C436        C437   1.400       .  A
C436        H441   1.084       .  S
C437        C438   1.418       .  A
C438       Br439   1.924       .  S
C443        C444   1.404       .  A
C443        C448   1.406       .  A
C443        H450   1.083       .  S
C444        C445   1.412       .  A
C445        C446   1.399       .  A
C445       Br452   1.914   1_565  S
C446        C447   1.402       .  A
C446        H451   1.084       .  S
C447        C448   1.415       .  A
C448       Br449   1.919       .  S
C453        C454   1.399       .  A
C453        C458   1.395       .  A
C453        H460   1.084       .  S
C454        C455   1.408       .  A
C455        C456   1.416   1_565  A
C455       Br462   1.914   1_565  S
C456        C457   1.413   1_545  A
C456        H461   1.083       .  S
C457        C458   1.419       .  A
C458       Br459   1.926       .  S
C463        C464   1.403       .  A
C463        C468   1.397       .  A
C463        H470   1.084       .  S
C464        C465   1.415       .  A
C465        C466   1.407       .  A
C465       Br472   1.919       .  S
C466        C467   1.406       .  A
C466        H471   1.083       .  S
C467        C468   1.415       .  A
C468       Br469   1.924       .  S
C473        C474   1.397       .  A
C473        C478   1.375       .  A
C473        H480   1.084       .  S
C474        C475   1.418       .  A
C475        C476   1.421       .  A
C475       Br482   1.916       .  S
C476        C477   1.410       .  A
C476        H481   1.083       .  S
C477        C478   1.406       .  A
C478       Br479   1.898       .  S
C483        C484   1.411       .  A
C483        C488   1.414       .  A
C483        H490   1.083       .  S
C484        C485   1.416       .  A
C485        C486   1.394       .  A
C485       Br492   1.923       .  S
C486        C487   1.406       .  A
C486        H491   1.083       .  S
C487        C488   1.418       .  A
C488       Br489   1.919       .  S
C493        C494   1.406       .  A
C493        C498   1.401   1_556  A
C493        H500   1.084       .  S
C494        C495   1.411       .  A
C495        C496   1.391   1_556  A
C495       Br502   1.923       .  S
C496        C497   1.401       .  A
C496        H501   1.084       .  S
C497        C498   1.410       .  A
C498       Br499   1.920       .  S
C503        C504   1.407       .  A
C503        C508   1.399       .  A
C503        H510   1.084       .  S
C504        C505   1.406       .  A
C505        C506   1.395       .  A
C505       Br512   1.916       .  S
C506        C507   1.405       .  A
C506        H511   1.084       .  S
C507        C508   1.408       .  A
C508       Br509   1.920       .  S
C513        C514   1.408       .  A
C513        C518   1.405       .  A
C513        H520   1.083       .  S
C514        C515   1.419       .  A
C515        C516   1.396       .  A
C515       Br522   1.923       .  S
C516        C517   1.405       .  A
C516        H521   1.083       .  S
C517        C518   1.416       .  A
C518       Br519   1.922       .  S
C523        C524   1.401       .  A
C523        C528   1.388       .  A
C523        H530   1.083       .  S
C524        C525   1.412       .  A
C525        C526   1.402       .  A
C525       Br532   1.920       .  S
C526        C527   1.408       .  A
C526        H531   1.083       .  S
C527        C528   1.417       .  A
C528       Br529   1.926       .  S
C533        C534   1.405       .  A
C533        C538   1.392       .  A
C533        H540   1.083       .  S
C534        C535   1.413       .  A
C535        C536   1.399       .  A
C535       Br542   1.921       .  S
C536        C537   1.407       .  A
C536        H541   1.083       .  S
C537        C538   1.411       .  A
C538       Br539   1.919       .  S
C543        C544   1.394       .  A
C543        C548   1.388       .  A
C543        H550   1.085       .  S
C544        C545   1.405       .  A
C545        C546   1.411       .  A
C545       Br552   1.914       .  S
C546        C547   1.412       .  A
C546        H551   1.083   1_655  S
C547        C548   1.426       .  A
C548       Br549   1.930       .  S
C553        C554   1.405       .  A
C553        C558   1.404       .  A
C553        H560   1.082       .  S
C554        C555   1.420       .  A
C555        C556   1.402       .  A
C555       Br562   1.923       .  S
C556        C557   1.403       .  A
C556        H561   1.084       .  S
C557        C558   1.416       .  A
C558       Br559   1.921       .  S
C563        C564   1.408       .  A
C563        C568   1.396       .  A
C563        H570   1.083       .  S
C564        C565   1.418       .  A
C565        C566   1.403       .  A
C565       Br572   1.922   1_565  S
C566        C567   1.404       .  A
C566        H571   1.084   1_565  S
C567        C568   1.409       .  A
C568       Br569   1.922       .  S
C573        C574   1.401       .  A
C573        C578   1.396       .  A
C573        H580   1.068       .  S
C574        C575   1.412       .  A
C575        C576   1.410       .  A
C575       Br582   1.917       .  S
C576        C577   1.408       .  A
C576        H581   1.081       .  S
C577        C578   1.412       .  A
C578       Br579   1.920       .  S
C583        C584   1.408       .  A
C583        C588   1.407       .  A
C583        H590   1.083       .  S
C584        C585   1.413       .  A
C585        C586   1.389       .  A
C585       Br592   1.923       .  S
C586        C587   1.406       .  A
C586        H591   1.083       .  S
C587        C588   1.416       .  A
C588       Br589   1.919       .  S
C593        C594   1.404       .  A
C593        C598   1.400   1_556  A
C593        H600   1.084       .  S
C594        C595   1.410       .  A
C595        C596   1.394   1_556  A
C595       Br602   1.922       .  S
C596        C597   1.402       .  A
C596        H601   1.084       .  S
C597        C598   1.411       .  A
C598       Br599   1.919       .  S
C603        C604   1.405       .  A
C603        C608   1.396       .  A
C603        H610   1.084       .  S
C604        C605   1.407       .  A
C605        C606   1.395       .  A
C605       Br612   1.914       .  S
C606        C607   1.401       .  A
C606        H611   1.085       .  S
C607        C608   1.404       .  A
C608       Br609   1.916       .  S
C613        C614   1.403       .  A
C613        C618   1.396       .  A
C613        H620   1.075       .  S
C614        C615   1.420       .  A
C615        C616   1.410       .  A
C615       Br622   1.920       .  S
C616        C617   1.406       .  A
C616        H621   1.082       .  S
C617        C618   1.420       .  A
C618       Br619   1.925       .  S
C623        C624   1.406       .  A
C623        C628   1.400       .  A
C623        H630   1.083       .  S
C624        C625   1.424       .  A
C625        C626   1.401       .  A
C625       Br632   1.924       .  S
C626        C627   1.399       .  A
C626        H631   1.084       .  S
C627        C628   1.410       .  A
C628       Br629   1.916       .  S
C633        C634   1.406       .  A
C633        C638   1.404       .  A
C633        H640   1.083       .  S
C634        C635   1.417       .  A
C635        C636   1.401       .  A
C635       Br642   1.923   1_455  S
C636        C637   1.405       .  A
C636        H641   1.079       .  S
C637        C638   1.420       .  A
C638       Br639   1.923       .  S
C643        C644   1.410       .  A
C643        C648   1.408   1_655  A
C643        H650   1.083       .  S
C644        C645   1.422   1_655  A
C645        C646   1.392       .  A
C645       Br652   1.929       .  S
C646        C647   1.402       .  A
C646        H651   1.084       .  S
C647        C648   1.413       .  A
C648       Br649   1.918       .  S
C653        C654   1.409       .  A
C653        C658   1.410       .  A
C653        H660   1.083       .  S
C654        C655   1.421       .  A
C655        C656   1.394       .  A
C655       Br662   1.923       .  S
C656        C657   1.395       .  A
C656        H661   1.081       .  S
C657        C658   1.409       .  A
C658       Br659   1.916       .  S
C663        C664   1.402       .  A
C663        C668   1.399       .  A
C663        H670   1.083       .  S
C664        C665   1.413       .  A
C665        C666   1.403       .  A
C665       Br672   1.912       .  S
C666        C667   1.400       .  A
C666        H671   1.083       .  S
C667        C668   1.412       .  A
C668       Br669   1.917       .  S
C673        C674   1.404       .  A
C673        C678   1.399       .  A
C673        H680   1.080       .  S
C674        C675   1.410       .  A
C675        C676   1.412       .  A
C675       Br682   1.917       .  S
C676        C677   1.414       .  A
C676        H681   1.083       .  S
C677        C678   1.419       .  A
C678       Br679   1.924       .  S
C683        C684   1.403       .  A
C683        C688   1.402       .  A
C683        H690   1.083       .  S
C684        C685   1.407       .  A
C685        C686   1.397       .  A
C685       Br692   1.921       .  S
C686        C687   1.408       .  A
C686        H691   1.083       .  S
C687        C688   1.413       .  A
C688       Br689   1.920       .  S
C693        C694   1.406       .  A
C693        C698   1.394       .  A
C693        H700   1.084       .  S
C694        C695   1.416       .  A
C695        C696   1.395       .  A
C695       Br702   1.922       .  S
C696        C697   1.399       .  A
C696        H701   1.085       .  S
C697        C698   1.404       .  A
C698       Br699   1.919       .  S
C703        C704   1.413       .  A
C703        C708   1.412       .  A
C703        H710   1.083       .  S
C704        C705   1.417       .  A
C705        C706   1.392       .  A
C705       Br712   1.925       .  S
C706        C707   1.404       .  A
C706        H711   1.076       .  S
C707        C708   1.415       .  A
C708       Br709   1.919       .  S
C713        C714   1.406       .  A
C713        C718   1.408       .  A
C713        H720   1.084       .  S
C714        C715   1.409       .  A
C715        C716   1.402       .  A
C715       Br722   1.920       .  S
C716        C717   1.411       .  A
C716        H721   1.083       .  S
C717        C718   1.417       .  A
C718       Br719   1.919       .  S
C723        C724   1.405       .  A
C723        C728   1.399       .  A
C723        H730   1.084       .  S
C724        C725   1.413       .  A
C725        C726   1.403       .  A
C725       Br732   1.921       .  S
C726        C727   1.410       .  A
C726        H731   1.083       .  S
C727        C728   1.416       .  A
C728       Br729   1.923       .  S
C733        C734   1.411       .  A
C733        C738   1.411   1_655  A
C733        H740   1.082       .  S
C734        C735   1.415   1_655  A
C735        C736   1.385       .  A
C735       Br742   1.925       .  S
C736        C737   1.400       .  A
C736        H741   1.076       .  S
C737        C738   1.411       .  A
C738       Br739   1.917       .  S
C743        C744   1.401       .  A
C743        C748   1.399       .  A
C743        H750   1.084       .  S
C744        C745   1.408       .  A
C745        C746   1.388       .  A
C745       Br752   1.924       .  S
C746        C747   1.406       .  A
C746        H751   1.083       .  S
C747        C748   1.418       .  A
C748       Br749   1.923   1_655  S
C753        C754   1.405       .  A
C753        C758   1.396       .  A
C753        H760   1.081       .  S
C754        C755   1.416       .  A
C755        C756   1.411       .  A
C755       Br762   1.918       .  S
C756        C757   1.408       .  A
C756        H761   1.083       .  S
C757        C758   1.414       .  A
C758       Br759   1.919       .  S
C763        C764   1.404       .  A
C763        C768   1.405       .  A
C763        H770   1.083       .  S
C764        C765   1.413       .  A
C765        C766   1.394       .  A
C765       Br772   1.923       .  S
C766        C767   1.405       .  A
C766        H771   1.083       .  S
C767        C768   1.418       .  A
C768       Br769   1.921       .  S
C773        C774   1.410       .  A
C773        C778   1.409       .  A
C773        H780   1.082       .  S
C774        C775   1.411       .  A
C775        C776   1.403       .  A
C775       Br782   1.917       .  S
C776        C777   1.406       .  A
C776        H781   1.080       .  S
C777        C778   1.410       .  A
C778       Br779   1.917       .  S
C783        C784   1.410       .  A
C783        C788   1.409       .  A
C783        H790   1.083       .  S
C784        C785   1.414       .  A
C785        C786   1.387       .  A
C785       Br792   1.922       .  S
C786        C787   1.400       .  A
C786        H791   1.084       .  S
C787        C788   1.410       .  A
C788       Br789   1.917       .  S
C793        C794   1.398       .  A
C793        C798   1.395   1_556  A
C793        H800   1.084       .  S
C794        C795   1.410       .  A
C795        C796   1.401   1_556  A
C795       Br802   1.918       .  S
C796        C797   1.406       .  A
C796        H801   1.083       .  S
C797        C798   1.420       .  A
C798       Br799   1.925       .  S
C803        C804   1.400       .  A
C803        C808   1.390       .  A
C803        H810   1.084       .  S
C804        C805   1.401       .  A
C805        C806   1.396       .  A
C805       Br812   1.919       .  S
C806        C807   1.411       .  A
C806        H811   1.084       .  S
C807        C808   1.412       .  A
C808       Br809   1.923       .  S
C813        C814   1.399       .  A
C813        C818   1.377       .  A
C813        H820   1.084       .  S
C814        C815   1.415       .  A
C815        C816   1.416       .  A
C815       Br822   1.916   1_545  S
C816        C817   1.408       .  A
C816        H821   1.083       .  S
C817        C818   1.404       .  A
C818       Br819   1.908       .  S
C823        C824   1.403       .  A
C823        C828   1.394       .  A
C823        H830   1.084       .  S
C824        C825   1.414       .  A
C825        C826   1.405       .  A
C825       Br832   1.919       .  S
C826        C827   1.407       .  A
C826        H831   1.083       .  S
C827        C828   1.413       .  A
C828       Br829   1.920       .  S
