geometry optimzed in LAMMPS
_audit_creation_date              2020-12-01 
_audit_creation_method            'lammps2cif' 
_symmetry_space_group_name_H-M    'P1' 
_symmetry_Int_Tables_number       1 
_symmetry_cell_setting            triclinic 
loop_ 
_symmetry_equiv_pos_as_xyz 
  x,y,z 
_cell_length_a                    55.16726527 
_cell_length_b                    55.23059028829613 
_cell_length_c                    30.06846398225122 
_cell_angle_alpha                 89.68830883151504 
_cell_angle_beta                  90.04595250038231 
_cell_angle_gamma                 90.13231299964924 
loop_ 
_atom_site_label 
_atom_site_type_symbol 
_atom_site_fract_x 
_atom_site_fract_y 
_atom_site_fract_z 
_atom_site_charge 
Fe1        Fe  0.42383395  0.89656150  0.82083881     1.65800
Fe2        Fe  0.41192326  0.84333936  0.87218899     1.73200
Fe3        Fe  0.45670940  0.84656633  0.79507781     1.54400
O4          O  0.44829168  0.86552775  0.73649302    -0.81300
O5          O  0.44271235  0.83274277  0.90522255    -0.79600
O6          O  0.41964044  0.89238615  0.75347288    -0.83800
O7          O  0.45995129  0.90625684  0.81159659    -0.78600
O8          O  0.43416926  0.81919473  0.77370321    -0.80400
O9          O  0.40830113  0.87183358  0.91693037    -0.83200
C10         C  0.48026646  0.89539090  0.81145708     0.97600
C11         C  0.43249615  0.88123289  0.72523419     1.05000
O12         O  0.43090072  0.86214857  0.82925081    -1.12100
O13         O  0.37996291  0.85255312  0.84177000    -0.74600
O14         O  0.38650364  0.89166116  0.82742119    -0.78100
O15         O  0.48197858  0.87248696  0.81295291    -0.78700
C16         C  0.37245620  0.87340044  0.83078335     0.96500
O17         O  0.42750136  0.90366368  0.88791591    -0.76700
O18         O  0.41221543  0.81184940  0.83436671    -0.81900
C19         C  0.46144549  0.82261938  0.88942383     0.99100
C20         C  0.41986023  0.80590725  0.79605902     1.05100
O21         O  0.46784581  0.82501253  0.84889609    -0.77500
C22         C  0.41693382  0.89313811  0.92012437     1.03400
Fe23       Fe  0.41041067  0.62945780  0.21259213     1.65800
Fe24       Fe  0.39720792  0.68488594  0.16764610     1.73200
Fe25       Fe  0.44436320  0.67931884  0.24117668     1.54400
O26         O  0.43363381  0.66233170  0.29957828    -0.81300
O27         O  0.42709543  0.70028711  0.13783732    -0.79600
O28         O  0.40953968  0.63131233  0.28103751    -0.83800
O29         O  0.44636436  0.61912379  0.21499212    -0.78600
O30         O  0.42446390  0.70913241  0.26028211    -0.80400
O31         O  0.39743972  0.65956348  0.11753989    -0.83200
C32         C  0.46667268  0.62924557  0.22192413     0.97600
C33         C  0.42009825  0.64447545  0.30977510     1.05000
O34         O  0.41741146  0.66456656  0.20716929    -1.12100
O35         O  0.36491641  0.67179942  0.19312524    -0.74600
O36         O  0.37312746  0.63379566  0.21256158    -0.78100
O37         O  0.46874093  0.65181640  0.22823119    -0.78700
C38         C  0.35830598  0.65107160  0.20681334     0.96500
O39         O  0.41076376  0.62427162  0.14435549    -0.76700
O40         O  0.39449314  0.71352650  0.21146102    -0.81900
C41         C  0.44884257  0.70471676  0.14912281     0.99100
C42         C  0.40643845  0.72065688  0.24500266     1.05100
O43         O  0.45775767  0.69810554  0.18626909    -0.77500
C44         C  0.40398214  0.63777173  0.11233855     1.03400
Fe45       Fe  0.36728819  0.58326378  0.71482617     1.65800
Fe46       Fe  0.31076736  0.59913996  0.68051721     1.73200
Fe47       Fe  0.31817387  0.54912799  0.74510211     1.54400
O48         O  0.34771950  0.52628817  0.73503751    -0.81300
O49         O  0.28880964  0.60411211  0.73392428    -0.79600
O50         O  0.37579854  0.54798968  0.69987787    -0.83800
O51         O  0.36892756  0.57624961  0.78293224    -0.78600
O52         O  0.30235311  0.53632575  0.68684688    -0.80400
O53         O  0.32861432  0.63041943  0.69948856    -0.83200
C54         C  0.35411475  0.56919571  0.81295361     0.97600
C55         C  0.36810531  0.52814224  0.71571230     1.05000
O56         O  0.33221228  0.57719050  0.71345432    -1.12100
O57         O  0.33101657  0.59629822  0.62386958    -0.74600
O58         O  0.36915301  0.59096085  0.64693174    -0.78100
O59         O  0.33329655  0.56042678  0.80428008    -0.78700
C60         C  0.35351104  0.59440917  0.61636033     0.96500
O61         O  0.36360670  0.61943616  0.73008890    -0.76700
O62         O  0.28932847  0.57107845  0.65711623    -0.81900
C63         C  0.27857450  0.58864532  0.75870510     0.99100
C64         C  0.28967627  0.54805718  0.65866715     1.05100
O65         O  0.28622973  0.56705219  0.76253006    -0.77500
C66         C  0.34811225  0.63541690  0.71976990     1.03400
Fe67       Fe  0.09674724  0.56454074  0.30979330     1.65800
Fe68       Fe  0.14819898  0.58743122  0.35781025     1.73200
Fe69       Fe  0.15055854  0.53423686  0.29967607     1.54400
O70         O  0.12339043  0.50848807  0.30783359    -0.81300
O71         O  0.17770665  0.59067113  0.31588880    -0.79600
O72         O  0.08905591  0.52838578  0.31862426    -0.83800
O73         O  0.10261764  0.55920186  0.24288672    -0.78600
O74         O  0.16363331  0.52577873  0.36307148    -0.80400
O75         O  0.13262521  0.61587109  0.32349943    -0.83200
C76         C  0.11979215  0.55114682  0.21892939     0.97600
C77         C  0.10063909  0.50887395  0.31327330     1.05000
O78         O  0.13179984  0.56198945  0.32258423    -1.12100
O79         O  0.12085691  0.58801025  0.40469558    -0.74600
O80         O  0.08800363  0.57026978  0.37596071    -0.78100
O81         O  0.13892011  0.54155163  0.23503303    -0.78700
C82         C  0.09909154  0.58058856  0.40774927     0.96500
O83         O  0.09804821  0.60118118  0.29679769    -0.76700
O84         O  0.16589819  0.56194827  0.39644249    -0.81900
C85         C  0.18908250  0.57552557  0.29236444     0.99100
C86         C  0.16966357  0.53925366  0.39561408     1.05100
O87         O  0.18129581  0.55428464  0.28575993    -0.77500
C88         C  0.11276918  0.61844249  0.30280833     1.03400
Fe89       Fe  0.05703740  0.88764590  0.22208672     1.65800
Fe90       Fe  0.07075192  0.83585700  0.16888661     1.73200
Fe91       Fe  0.02702058  0.83548864  0.24877534     1.54400
O92         O  0.03722234  0.85270602  0.30740643    -0.81300
O93         O  0.04007272  0.82334092  0.13762107    -0.79600
O94         O  0.06281727  0.88249979  0.28861220    -0.83800
O95         O  0.02105691  0.89519203  0.23406402    -0.78600
O96         O  0.05093859  0.80849619  0.26622450    -0.80400
O97         O  0.07162600  0.86498156  0.12516717    -0.83200
C98         C  0.00114150  0.88379684  0.23773406     0.97600
C99         C  0.05245633  0.86915498  0.31737665     1.05000
O100        O  0.05138642  0.85297088  0.21321885    -1.12100
O101        O  0.10288284  0.84690513  0.19740576    -0.74600
O102        O  0.09436089  0.88530316  0.21297400    -0.78100
O103        O  0.99996923  0.86084383  0.23671341    -0.78700
C104        C  0.10940531  0.86807131  0.20844701     0.96500
O105        O  0.05163724  0.89559152  0.15577900    -0.76700
O106        O  0.07323651  0.80404877  0.20531720    -0.81900
C107        C  0.02129333  0.81316092  0.15367296     0.99100
C108        C  0.06612282  0.79685254  0.24326365     1.05100
O109        O  0.01495814  0.81531211  0.19426275    -0.77500
C110        C  0.06221165  0.88593342  0.12299131     1.03400
Fe111      Fe  0.05086955  0.62124532  0.81255330     1.65800
Fe112      Fe  0.06961284  0.67124694  0.86984871     1.73200
Fe113      Fe  0.02277457  0.67567784  0.79516503     1.54400
O114        O  0.03094121  0.66148527  0.73283363    -0.81300
O115        O  0.04096741  0.68542754  0.90499099    -0.79600
O116        O  0.05088991  0.62705175  0.74521167    -0.83800
O117        O  0.01396860  0.61477954  0.81177197    -0.78600
O118        O  0.04629441  0.70359391  0.78053265    -0.80400
O119        O  0.06988400  0.64159116  0.91234329    -0.83200
C120        C  0.99488427  0.62745201  0.80814192     0.97600
C121        C  0.04225653  0.64293149  0.71913161     1.05000
O122        O  0.04764489  0.65605936  0.82593335    -1.12100
O123        O  0.10010314  0.65855591  0.83868349    -0.74600
O124        O  0.08829740  0.62321384  0.80994087    -0.78100
O125        O  0.99541559  0.65036973  0.80491074    -0.78700
C126        C  0.10449562  0.63878593  0.81901604     0.96500
O127        O  0.05138121  0.61094328  0.87856889    -0.76700
O128        O  0.07364371  0.70355388  0.83483452    -0.81900
C129        C  0.02094199  0.69479338  0.89299189     0.99100
C130        C  0.06395094  0.71318381  0.80081138     1.05100
O131        O  0.01242719  0.69285671  0.85374682    -0.77500
C132        C  0.06172882  0.62008608  0.91213797     1.03400
Fe133      Fe  0.36946131  0.94736161  0.32311603     1.65800
Fe134      Fe  0.31279664  0.93421733  0.36329637     1.73200
Fe135      Fe  0.32066213  0.98327538  0.29618597     1.54400
O136        O  0.35082268  0.00534608  0.30433756    -0.81300
O137        O  0.28760498  0.93045664  0.31362856    -0.79600
O138        O  0.38117155  0.98294694  0.33004945    -0.83800
O139        O  0.36854969  0.95113030  0.25431005    -0.78600
O140        O  0.30612479  0.99730266  0.35481718    -0.80400
O141        O  0.32746699  0.90217184  0.34173706    -0.83200
C142        C  0.35344593  0.95915082  0.22566501     0.97600
C143        C  0.37254981  0.00314770  0.31744197     1.05000
O144        O  0.33446922  0.95502225  0.32770126    -1.12100
O145        O  0.33579033  0.93551021  0.41716589    -0.74600
O146        O  0.37330141  0.94248562  0.39176144    -0.78100
O147        O  0.33425517  0.97064388  0.23613663    -0.78700
C148        C  0.35841468  0.93812989  0.42327512     0.96500
O149        O  0.36386979  0.91051760  0.31412215    -0.76700
O150        O  0.29436522  0.96332000  0.38931323    -0.81900
C151        C  0.27821147  0.94597333  0.28782263     0.99100
C152        C  0.29452264  0.98622682  0.38544698     1.05100
O153        O  0.28772179  0.96661650  0.28117385    -0.77500
C154        C  0.34695817  0.89570834  0.32327563     1.03400
Fe155      Fe  0.10814332  0.93581698  0.72513077     1.65800
Fe156      Fe  0.16323141  0.92390340  0.67869140     1.73200
Fe157      Fe  0.15562779  0.97441358  0.74229521     1.54400
O158        O  0.12408404  0.99473304  0.73662021    -0.81300
O159        O  0.19036738  0.92287222  0.72527754    -0.79600
O160        O  0.09538024  0.97001023  0.71194705    -0.83800
O161        O  0.11066350  0.94282275  0.79232134    -0.78600
O162        O  0.16680012  0.98749456  0.68050697    -0.80400
O163        O  0.15061195  0.89164217  0.70567587    -0.83200
C164        C  0.12637306  0.95171648  0.81864614     0.97600
C165        C  0.10269144  0.99082696  0.72295992     1.05000
O166        O  0.14227856  0.94468184  0.71529333    -1.12100
O167        O  0.13821532  0.92235009  0.62767762    -0.74600
O168        O  0.10205341  0.92812269  0.65911641    -0.78100
O169        O  0.14531309  0.96279618  0.80528469    -0.78700
C170        C  0.11525602  0.92376128  0.62563937     0.96500
O171        O  0.11587387  0.90006605  0.73960402    -0.76700
O172        O  0.17910427  0.95348736  0.64727581    -0.81900
C173        C  0.19980607  0.93949314  0.74839857     0.99100
C174        C  0.17769369  0.97646277  0.64926327     1.05100
O175        O  0.18967033  0.95981239  0.75405708    -0.77500
C176        C  0.13240414  0.88532268  0.72870755     1.03400
Fe177      Fe  0.59551278  0.44558525  0.31286680     1.65800
Fe178      Fe  0.64927724  0.42814697  0.35865665     1.73200
Fe179      Fe  0.64745714  0.47660836  0.28949284     1.54400
O180        O  0.63543204  0.46390917  0.22890523    -0.81300
O181        O  0.67166709  0.45574597  0.38164290    -0.79600
O182        O  0.59812965  0.45000342  0.24436680    -0.83800
O183        O  0.58733483  0.48155278  0.32122960    -0.78600
O184        O  0.67917229  0.45681291  0.27994326    -0.80400
O185        O  0.62654610  0.43457793  0.41133713    -0.83200
C186        C  0.59690937  0.50043411  0.30481013     0.97600
C187        C  0.61509281  0.45512561  0.21704488     1.05000
O188        O  0.63055296  0.45010043  0.32038593    -1.12100
O189        O  0.62997744  0.39700591  0.34212392    -0.74600
O190        O  0.59814501  0.40906582  0.30263577    -0.78100
O191        O  0.61869576  0.50090997  0.29143910    -0.78700
C192        C  0.61122503  0.39254674  0.31905309     0.96500
O193        O  0.58990328  0.44015711  0.38074901    -0.76700
O194        O  0.67330639  0.42009781  0.30874248    -0.81900
C195        C  0.67163677  0.47875326  0.37936401     0.99100
C196        C  0.68525559  0.43476614  0.28466888     1.05100
O197        O  0.66018546  0.49035557  0.34936002    -0.77500
C198        C  0.60374053  0.43716240  0.41432699     1.03400
Fe199      Fe  0.86709737  0.44210958  0.71327006     1.65800
Fe200      Fe  0.81282766  0.42637924  0.66726045     1.73200
Fe201      Fe  0.81690828  0.47694634  0.73184269     1.54400
O202        O  0.82905201  0.46688883  0.79421649    -0.81300
O203        O  0.79367878  0.45430745  0.63787727    -0.79600
O204        O  0.86477851  0.44926579  0.78071414    -0.83800
O205        O  0.87714617  0.47719460  0.69990318    -0.78600
O206        O  0.78460563  0.45875346  0.74583397    -0.80400
O207        O  0.83718695  0.42803813  0.61541741    -0.83200
C208        C  0.86864786  0.49733889  0.71202631     0.97600
C209        C  0.84897134  0.45774799  0.80724692     1.05000
O210        O  0.83234069  0.44847254  0.70415819    -1.12100
O211        O  0.82862689  0.39515206  0.69184209    -0.74600
O212        O  0.86217822  0.40579849  0.72784185    -0.78100
O213        O  0.84691996  0.49982435  0.72519749    -0.78700
C214        C  0.84704729  0.38994965  0.71514203     0.96500
O215        O  0.87324363  0.43468132  0.64688645    -0.76700
O216        O  0.78659572  0.42231348  0.71480934    -0.81900
C217        C  0.79279084  0.47724847  0.64027242     0.99100
C218        C  0.77625040  0.43758641  0.73960005     1.05100
O219        O  0.80343493  0.48916429  0.67078838    -0.77500
C220        C  0.86007203  0.43032951  0.61321831     1.03400
Fe221      Fe  0.90819041  0.39422301  0.20659547     1.65800
Fe222      Fe  0.89045959  0.34287571  0.15496300     1.73200
Fe223      Fe  0.93675500  0.34136682  0.22961847     1.54400
O224        O  0.96167965  0.37037197  0.23003150    -0.81300
O225        O  0.88103061  0.31687150  0.20058554    -0.79600
O226        O  0.94404381  0.40059206  0.19296614    -0.83800
O227        O  0.91498560  0.39137498  0.27439711    -0.78600
O228        O  0.95196420  0.32838942  0.17141489    -0.80400
O229        O  0.85942474  0.36181161  0.17471699    -0.83200
C230        C  0.91637982  0.37360368  0.30135808     0.97600
C231        C  0.96235465  0.39126463  0.21175486     1.05000
O232        O  0.91188484  0.35946169  0.19671892    -1.12100
O233        O  0.89796476  0.36708981  0.10525676    -0.74600
O234        O  0.90054479  0.40239328  0.14028917    -0.78100
O235        O  0.92226203  0.35247331  0.28917085    -0.78700
C236        C  0.89925455  0.38993096  0.10495663     0.96500
O237        O  0.87221544  0.39018036  0.22179787    -0.76700
O238        O  0.91873198  0.32190294  0.13034133    -0.81900
C239        C  0.89412502  0.30419082  0.22612513     0.99100
C240        C  0.94139878  0.31945656  0.13754468     1.05100
O241        O  0.91585853  0.30993701  0.23567162    -0.77500
C242        C  0.85544974  0.37783818  0.20414786     1.03400
Fe243      Fe  0.92704440  0.12778831  0.81111603     1.65800
Fe244      Fe  0.91266300  0.18036404  0.85975596     1.73200
Fe245      Fe  0.95672887  0.17947002  0.78097404     1.54400
O246        O  0.98381056  0.15508195  0.79746204    -0.81300
O247        O  0.91090434  0.21171155  0.82127480    -0.79600
O248        O  0.96333901  0.12032936  0.80024841    -0.83800
O249        O  0.92135641  0.13158729  0.74462868    -0.78600
O250        O  0.96741950  0.20179437  0.83408162    -0.80400
O251        O  0.88112777  0.16909017  0.83024397    -0.83200
C252        C  0.93250729  0.14338019  0.71465770     0.97600
C253        C  0.98312718  0.13210416  0.79784587     1.05000
O254        O  0.93232987  0.16257635  0.81718716    -1.12100
O255        O  0.91095517  0.15188321  0.90528384    -0.74600
O256        O  0.93250255  0.12149857  0.87777614    -0.78100
O257        O  0.94806731  0.15981095  0.72342653    -0.78700
C258        C  0.92118444  0.13138091  0.90940983     0.96500
O259        O  0.88947402  0.13011245  0.81968050    -0.76700
O260        O  0.94312565  0.19279997  0.89139246    -0.81900
C261        C  0.91790224  0.21808742  0.78268850     0.99100
C262        C  0.96113119  0.20399369  0.87476219     1.05100
O263        O  0.93254235  0.20554190  0.76003860    -0.77500
C264        C  0.87455313  0.14765990  0.82139854     1.03400
Fe265      Fe  0.60967682  0.08507069  0.71748868     1.65800
Fe266      Fe  0.66473104  0.09704580  0.67162321     1.73200
Fe267      Fe  0.65712536  0.04599808  0.73638084     1.54400
O268        O  0.64271345  0.05468168  0.79784772    -0.81300
O269        O  0.67719355  0.06805582  0.63519021    -0.79600
O270        O  0.61304671  0.08137338  0.78480722    -0.83800
O271        O  0.59664931  0.05042537  0.71232761    -0.78600
O272        O  0.68909711  0.06234847  0.75638194    -0.80400
O273        O  0.63825028  0.10262638  0.62417548    -0.83200
C274        C  0.60466557  0.02910665  0.71604608     0.97600
C275        C  0.62599895  0.06873997  0.81096207     1.05000
O276        O  0.64386883  0.07588588  0.70840583    -1.12100
O277        O  0.65494570  0.12852129  0.70408310    -0.74600
O278        O  0.61677292  0.12174026  0.72417977    -0.78100
O279        O  0.62694676  0.02448686  0.72251031    -0.78700
C280        C  0.63483658  0.13577560  0.71934246     0.96500
O281        O  0.60296583  0.08937570  0.65100521    -0.76700
O282        O  0.69411028  0.09490515  0.71362783    -0.81900
C283        C  0.68053271  0.04556431  0.64216623     0.99100
C284        C  0.70124124  0.08068833  0.74410214     1.05100
O285        O  0.67362479  0.03475459  0.67755280    -0.77500
C286        C  0.61572192  0.09839456  0.62017598     1.03400
Fe287      Fe  0.87711129  0.07129100  0.30958172     1.65800
Fe288      Fe  0.82421924  0.09135114  0.35489337     1.73200
Fe289      Fe  0.82357301  0.04259838  0.28442205     1.54400
O290        O  0.84082990  0.05057190  0.22464833    -0.81300
O291        O  0.80632861  0.06372956  0.38792646    -0.79600
O292        O  0.87439247  0.07134432  0.24143894    -0.83800
O293        O  0.88324240  0.03464333  0.31041371    -0.78600
O294        O  0.79622340  0.06552562  0.26403617    -0.80400
O295        O  0.85051931  0.09028767  0.40334692    -0.83200
C296        C  0.87112832  0.01532840  0.30550576     0.97600
C297        C  0.85966105  0.06245289  0.21343683     1.05000
O298        O  0.84159857  0.06828171  0.31643779    -1.12100
O299        O  0.84016917  0.12168379  0.32640093    -0.74600
O300        O  0.87668064  0.10850218  0.30671159    -0.78100
O301        O  0.84842196  0.01539646  0.29881496    -0.78700
C302        C  0.86150305  0.12537784  0.31206464     0.96500
O303        O  0.88350760  0.07201887  0.37731310    -0.76700
O304        O  0.79536931  0.09600578  0.31194699    -0.81900
C305        C  0.79868871  0.04275701  0.37757994     0.99100
C306        C  0.78696116  0.08487935  0.27854329     1.05100
O307        O  0.80365227  0.03266624  0.34067372    -0.77500
C308        C  0.87180022  0.08203822  0.40846158     1.03400
Fe309      Fe  0.54539483  0.39806423  0.80711102     1.65800
Fe310      Fe  0.56831323  0.34698113  0.85486462     1.73200
Fe311      Fe  0.51804280  0.34353749  0.78772663     1.54400
O312        O  0.49015405  0.36728745  0.80412614    -0.81300
O313        O  0.57263611  0.31705513  0.81428216    -0.79600
O314        O  0.50847200  0.40313138  0.80495291    -0.83800
O315        O  0.54566984  0.39396630  0.73950283    -0.78600
O316        O  0.51069686  0.32358750  0.84556792    -0.80400
O317        O  0.59727740  0.36299498  0.82252271    -0.83200
C318        C  0.53490502  0.37957519  0.71319874     0.97600
C319        C  0.48945902  0.39026005  0.80387298     1.05000
O320        O  0.54380714  0.36276261  0.81658684    -1.12100
O321        O  0.56759807  0.37455634  0.90109865    -0.74600
O322        O  0.54514056  0.40492802  0.87456713    -0.78100
O323        O  0.52311071  0.36103402  0.72656053    -0.78700
C324        C  0.55705461  0.39483658  0.90565595     0.96500
O325        O  0.58278367  0.39936189  0.80508382    -0.76700
O326        O  0.54212219  0.32915404  0.89146754    -0.81900
C327        C  0.56133676  0.30810007  0.78143974     0.99100
C328        C  0.52150619  0.32005489  0.88255104     1.05100
O329        O  0.54185230  0.31714522  0.76640553    -0.77500
C330        C  0.60012411  0.38448545  0.80838619     1.03400
Fe331      Fe  0.56236583  0.12569447  0.21435388     1.65800
Fe332      Fe  0.57897236  0.17755361  0.16444062     1.73200
Fe333      Fe  0.53516849  0.17844319  0.24462946     1.54400
O334        O  0.50713177  0.15331820  0.23629765    -0.81300
O335        O  0.58504816  0.20766614  0.20307005    -0.79600
O336        O  0.52719136  0.11869932  0.23365885    -0.83800
O337        O  0.57199505  0.13056706  0.27890918    -0.78600
O338        O  0.52211392  0.19842211  0.19007736    -0.80400
O339        O  0.61050728  0.16341924  0.19094144    -0.83200
C340        C  0.56344593  0.14411872  0.30896049     0.97600
C341        C  0.50774172  0.13037964  0.23925634     1.05000
O342        O  0.55846670  0.16078155  0.20768960    -1.12100
O343        O  0.57611691  0.14932224  0.11969674    -0.74600
O344        O  0.55312241  0.12001093  0.14911313    -0.78100
O345        O  0.54757221  0.16055796  0.30185068    -0.78700
C346        C  0.56437806  0.12950917  0.11664168     0.96500
O347        O  0.59890131  0.12521261  0.19802641    -0.76700
O348        O  0.54923139  0.19364617  0.13521080    -0.81900
C349        C  0.57676550  0.21593226  0.23913354     0.99100
C350        C  0.52950739  0.20225311  0.15033372     1.05100
O351        O  0.55922015  0.20609032  0.25967428    -0.77500
C352        C  0.61533687  0.14123683  0.19689144     1.03400
C353        C  0.51330279  0.28123038  0.98874143     0.19100
C354        C  0.51632704  0.28478530  0.03465475    -0.19000
C355        C  0.51616610  0.26512221  0.06431431    -0.11300
C356        C  0.51348359  0.24135399  0.04848643     0.21300
C357        C  0.50936461  0.23787726  0.00285512    -0.20600
C358        C  0.50899232  0.25759960  0.97329152    -0.11500
C359        C  0.51963071  0.22013488  0.07702344    -0.15600
C360        C  0.51574664  0.21915351  0.12129232    -0.29500
C361        C  0.51885783  0.30159816  0.95763659    -0.03700
C362        C  0.51041827  0.30328623  0.91558768    -0.40300
H363        H  0.52002106  0.30273356  0.04737872     0.12500
H364        H  0.52002052  0.26841232  0.09907323     0.12100
H365        H  0.50764619  0.21972466  0.98973792     0.11600
H366        H  0.50716269  0.25405807  0.93808668     0.11800
H367        H  0.52972060  0.20561172  0.06135151     0.14500
H368        H  0.50437612  0.23264797  0.13703607     0.13300
H369        H  0.53174539  0.31508428  0.96923355     0.11000
H370        H  0.49640184  0.29095793  0.90419047     0.13000
C371        C  0.72960691  0.12242175  0.25102651     0.19100
C372        C  0.72141271  0.14561749  0.26251073    -0.19000
C373        C  0.69898789  0.15411959  0.24740103    -0.11300
C374        C  0.68402059  0.13945524  0.22109683     0.21300
C375        C  0.69250101  0.11650293  0.20832022    -0.20600
C376        C  0.71494340  0.10800671  0.22333757    -0.11500
C377        C  0.65938417  0.14824699  0.20904572    -0.15600
C378        C  0.64057567  0.13305154  0.20315216    -0.29500
C379        C  0.75276063  0.11357237  0.27071209    -0.03700
C380        C  0.76514235  0.09426694  0.25572725    -0.40300
H381        H  0.73226855  0.15710920  0.28380840     0.12500
H382        H  0.69296919  0.17191557  0.25750813     0.12100
H383        H  0.68178798  0.10493505  0.18700356     0.11600
H384        H  0.72023080  0.08989743  0.21410301     0.11800
H385        H  0.65616389  0.16765319  0.20901930     0.14500
H386        H  0.64330760  0.11365672  0.20613882     0.13300
H387        H  0.75980709  0.12337063  0.29920569     0.11000
H388        H  0.75903006  0.08456853  0.22654238     0.13000
C389        C  0.60617460  0.19843248  0.74315371     0.19100
C390        C  0.58374493  0.20840787  0.73092510    -0.19000
C391        C  0.57821455  0.23254673  0.74027085    -0.11300
C392        C  0.59502685  0.24743553  0.76246373     0.21300
C393        C  0.61759176  0.23750837  0.77441562    -0.20600
C394        C  0.62319780  0.21331971  0.76474066    -0.11500
C395        C  0.58876428  0.27241877  0.77744622    -0.15600
C396        C  0.57024674  0.28553242  0.76058969    -0.29500
C397        C  0.61030359  0.17217025  0.73490361    -0.03700
C398        C  0.63228053  0.16174703  0.73089950    -0.40300
H399        H  0.57020818  0.19732183  0.71460499     0.12500
H400        H  0.56034670  0.23900838  0.73157889     0.12100
H401        H  0.63076861  0.24838525  0.79211702     0.11600
H402        H  0.64047383  0.20617801  0.77558492     0.11800
H403        H  0.59922955  0.27984522  0.80482481     0.14500
H404        H  0.56012379  0.27890193  0.73221627     0.13300
H405        H  0.59427590  0.16106701  0.72957169     0.11000
H406        H  0.64861036  0.17267480  0.73294690     0.13000
C407        C  0.71827398  0.03307593  0.53773293     0.19100
C408        C  0.71513902  0.03469811  0.49148095    -0.19000
C409        C  0.73509372  0.03351627  0.46280639    -0.11300
C410        C  0.75871124  0.03136731  0.47999499     0.21300
C411        C  0.76175132  0.02860303  0.52611490    -0.20600
C412        C  0.74170508  0.02908933  0.55472916    -0.11500
C413        C  0.78014935  0.03670252  0.45163062    -0.15600
C414        C  0.78163932  0.03048435  0.40845389    -0.29500
C415        C  0.69807917  0.04046896  0.56736438    -0.03700
C416        C  0.69495555  0.03197805  0.60906484    -0.40300
H417        H  0.69734113  0.03818695  0.47764553     0.12500
H418        H  0.73218475  0.03629678  0.42753227     0.12100
H419        H  0.77978615  0.02731173  0.54019292     0.11600
H420        H  0.74481201  0.02837311  0.59026986     0.11800
H421        H  0.79429626  0.04795942  0.46597666     0.14500
H422        H  0.76853033  0.01792534  0.39452136     0.13300
H423        H  0.68657136  0.05510314  0.55551845     0.11000
H424        H  0.70517576  0.01633975  0.62045107     0.13000
C425        C  0.58881127  0.10594809  0.00675294     0.19100
C426        C  0.61239664  0.10007485  0.99347335    -0.19000
C427        C  0.61672603  0.09111176  0.95104661    -0.11300
C428        C  0.59742950  0.08807390  0.92104422     0.21300
C429        C  0.57375568  0.09354431  0.93468510    -0.20600
C430        C  0.56940731  0.10230511  0.97733980    -0.11500
C431        C  0.60157898  0.08199920  0.87398524    -0.15600
C432        C  0.62161469  0.07092548  0.85892897    -0.29500
C433        C  0.58554722  0.11813953  0.04963089    -0.03700
C434        C  0.56531949  0.11659526  0.07426039    -0.40300
H435        H  0.62760720  0.10306412  0.01561959     0.12500
H436        H  0.63528919  0.08781545  0.94133610     0.12100
H437        H  0.55868227  0.09170040  0.91181835     0.11600
H438        H  0.55110938  0.10729429  0.98639495     0.11800
H439        H  0.58765213  0.08755447  0.85045733     0.14500
H440        H  0.63505901  0.06367498  0.88170927     0.13300
H441        H  0.60097205  0.12833540  0.06224141     0.11000
H442        H  0.55048971  0.10470351  0.06490168     0.13000
C443        C  0.60074216  0.13014636  0.51031575     0.19100
C444        C  0.61454136  0.13752427  0.47362632    -0.19000
C445        C  0.60315579  0.14562710  0.43504536    -0.11300
C446        C  0.57773335  0.14664244  0.43270843     0.21300
C447        C  0.56392197  0.14086556  0.47028997    -0.20600
C448        C  0.57532925  0.13254647  0.50891907    -0.11500
C449        C  0.56563085  0.15165719  0.38999819    -0.15600
C450        C  0.57343363  0.14034565  0.35349264    -0.29500
C451        C  0.61355924  0.12069720  0.54978071    -0.03700
C452        C  0.60335111  0.10522964  0.57881080    -0.40300
H453        H  0.63414252  0.13636240  0.47438143     0.12500
H454        H  0.61417395  0.15056263  0.40658490     0.12100
H455        H  0.54432140  0.14183600  0.46912743     0.11600
H456        H  0.56422756  0.12801407  0.53742121     0.11800
H457        H  0.54972471  0.16320571  0.38895868     0.14500
H458        H  0.58829152  0.12749745  0.35626432     0.13300
H459        H  0.63216938  0.12659690  0.55485873     0.11000
H460        H  0.58499363  0.09868026  0.57376344     0.13000
C461        C  0.88836528  0.08616542  0.10504131     0.19100
C462        C  0.91201536  0.08817156  0.08820815    -0.19000
C463        C  0.91628846  0.09917022  0.04693354    -0.11300
C464        C  0.89691700  0.10870564  0.02204453     0.21300
C465        C  0.87327264  0.10656976  0.03876288    -0.20600
C466        C  0.86896958  0.09529269  0.07969909    -0.11500
C467        C  0.90075089  0.12232981  0.98004375    -0.15600
C468        C  0.91924625  0.11818432  0.95201594    -0.29500
C469        C  0.88480294  0.07709542  0.15106715    -0.03700
C470        C  0.86398646  0.06706641  0.16567095    -0.40300
H471        H  0.92727835  0.08164693  0.10750063     0.12500
H472        H  0.93479893  0.10103328  0.03551974     0.12100
H473        H  0.85809551  0.11400500  0.02036831     0.11600
H474        H  0.85059544  0.09476437  0.09223080     0.11800
H475        H  0.88700408  0.13548961  0.97068548     0.14500
H476        H  0.93202682  0.10369409  0.95869830     0.13300
H477        H  0.89977460  0.07947695  0.17417235     0.11000
H478        H  0.84940896  0.06312841  0.14251692     0.13000
C479        C  0.88237255  0.10135663  0.52962421     0.19100
C480        C  0.86687134  0.10258274  0.56637453    -0.19000
C481        C  0.87567815  0.10953690  0.60774789    -0.11300
C482        C  0.90007141  0.11603065  0.61313779     0.21300
C483        C  0.91576396  0.11499764  0.57636783    -0.20600
C484        C  0.90696878  0.10761140  0.53480798    -0.11500
C485        C  0.90828598  0.12248973  0.65833037    -0.15600
C486        C  0.92683474  0.13754697  0.66778480    -0.29500
C487        C  0.87155453  0.09532925  0.48608475    -0.03700
C488        C  0.88364130  0.08517499  0.45214244    -0.40300
H489        H  0.84782597  0.09808246  0.56307509     0.12500
H490        H  0.86327859  0.11008662  0.63566016     0.12100
H491        H  0.93476911  0.11952320  0.57977748     0.11600
H492        H  0.91924548  0.10734966  0.50676666     0.11800
H493        H  0.89739657  0.11525106  0.68545837     0.14500
H494        H  0.93722406  0.14610931  0.64136938     0.13300
H495        H  0.85238920  0.09936555  0.48213240     0.11000
H496        H  0.90248045  0.07990200  0.45591965     0.13000
C497        C  0.76419489  0.10828802  0.76999454     0.19100
C498        C  0.77449880  0.13126541  0.76332697    -0.19000
C499        C  0.79855633  0.13587676  0.77506866    -0.11300
C500        C  0.81299190  0.11752253  0.79395895     0.21300
C501        C  0.80274366  0.09448548  0.80055884    -0.20600
C502        C  0.77858940  0.08987096  0.78885577    -0.11500
C503        C  0.83904754  0.12145513  0.80476934    -0.15600
C504        C  0.84852017  0.14349030  0.81282309    -0.29500
C505        C  0.73913575  0.10401363  0.75345145    -0.03700
C506        C  0.72503132  0.08512218  0.76540423    -0.40300
H507        H  0.76398581  0.14566899  0.74819282     0.12500
H508        H  0.80588586  0.15363506  0.76784778     0.12100
H509        H  0.81354873  0.07992820  0.81442069     0.11600
H510        H  0.77163805  0.07171069  0.79337146     0.11800
H511        H  0.85071972  0.10565550  0.80665050     0.14500
H512        H  0.83686886  0.15927590  0.81355147     0.13300
H513        H  0.73205560  0.11711763  0.72969647     0.11000
H514        H  0.73114618  0.07223295  0.79030346     0.13000
C515        C  0.88576321  0.24154992  0.28175473     0.19100
C516        C  0.90175857  0.22231981  0.28965657    -0.19000
C517        C  0.89296706  0.19925990  0.30020596    -0.11300
C518        C  0.86784286  0.19487635  0.30301107     0.21300
C519        C  0.85187522  0.21438302  0.29748683    -0.20600
C520        C  0.86068385  0.23749342  0.28688321    -0.11500
C521        C  0.85788569  0.17029130  0.31223955    -0.15600
C522        C  0.86992013  0.15005965  0.30118142    -0.29500
C523        C  0.89596382  0.26537790  0.26789271    -0.03700
C524        C  0.88331619  0.28169924  0.24407100    -0.40300
H525        H  0.92115595  0.22503869  0.28687912     0.12500
H526        H  0.90597089  0.18500672  0.30637450     0.12100
H527        H  0.83249841  0.21164146  0.30059482     0.11600
H528        H  0.84777911  0.25205319  0.28292100     0.11800
H529        H  0.84010054  0.16882334  0.32754992     0.14500
H530        H  0.88724049  0.15142102  0.28425913     0.13300
H531        H  0.91502088  0.26881243  0.27463078     0.11000
H532        H  0.86467357  0.27795226  0.23483734     0.13000
C533        C  0.95891600  0.28213933  0.03403612     0.19100
C534        C  0.95456263  0.28448358  0.98819955    -0.19000
C535        C  0.96066425  0.26586014  0.95892661    -0.11300
C536        C  0.97081082  0.24419907  0.97508592     0.21300
C537        C  0.97627059  0.24229464  0.02059616    -0.20600
C538        C  0.97065284  0.26117994  0.04980002    -0.11500
C539        C  0.97055576  0.22201181  0.94738680    -0.15600
C540        C  0.97331447  0.22228248  0.90286217    -0.29500
C541        C  0.94769557  0.29995056  0.06471915    -0.03700
C542        C  0.95579361  0.30471733  0.10607332    -0.40300
H543        H  0.94529720  0.30030144  0.97526696     0.12500
H544        H  0.95556262  0.26766858  0.92429001     0.12100
H545        H  0.98365876  0.22561534  0.03395257     0.11600
H546        H  0.97383860  0.25852099  0.08500251     0.11800
H547        H  0.96434772  0.20547185  0.96355441     0.14500
H548        H  0.98092145  0.23814034  0.88647603     0.13300
H549        H  0.93145134  0.30908018  0.05295381     0.11000
H550        H  0.97287978  0.29719875  0.11749414     0.13000
C551        C  0.89543104  0.40341294  0.40955280     0.19100
C552        C  0.90251299  0.42360503  0.43450278    -0.19000
C553        C  0.89171012  0.42828280  0.47562334    -0.11300
C554        C  0.87326132  0.41303204  0.49197345     0.21300
C555        C  0.86579111  0.39320197  0.46643700    -0.20600
C556        C  0.87689652  0.38827656  0.42578725    -0.11500
C557        C  0.86094661  0.41761338  0.53482916    -0.15600
C558        C  0.87221048  0.42763665  0.56986905    -0.29500
C559        C  0.90607842  0.39956298  0.36503563    -0.03700
C560        C  0.90987452  0.37735773  0.34834946    -0.40300
H561        H  0.91641063  0.43576915  0.42210121     0.12500
H562        H  0.89739098  0.44412438  0.49395353     0.12100
H563        H  0.85137593  0.38142451  0.47808893     0.11600
H564        H  0.87049004  0.37304309  0.40651194     0.11800
H565        H  0.84248721  0.41098587  0.53858652     0.14500
H566        H  0.89121227  0.43266688  0.56762098     0.13300
H567        H  0.91055331  0.41548631  0.34526733     0.11000
H568        H  0.90692033  0.36144541  0.36906722     0.13000
C569        C  0.88134019  0.44748874  0.91948068     0.19100
C570        C  0.90193280  0.43389909  0.93063122    -0.19000
C571        C  0.90662677  0.42758734  0.97474103    -0.11300
C572        C  0.89082497  0.43485415  0.00873727     0.21300
C573        C  0.87131581  0.45006858  0.99822118    -0.20600
C574        C  0.86649298  0.45629130  0.95388631    -0.11500
C575        C  0.89341100  0.42516282  0.05450978    -0.15600
C576        C  0.89920426  0.40181345  0.06111813    -0.29500
C577        C  0.87587415  0.45122543  0.87159753    -0.03700
C578        C  0.85379342  0.45682302  0.85551982    -0.40300
H579        H  0.91395944  0.42732679  0.90493264     0.12500
H580        H  0.92228181  0.41647120  0.98212498     0.12100
H581        H  0.85915623  0.45619682  0.02407267     0.11600
H582        H  0.85099469  0.46762670  0.94686586     0.11800
H583        H  0.88802324  0.43633424  0.08243102     0.14500
H584        H  0.90230471  0.39021508  0.03260036     0.13300
H585        H  0.89042390  0.44755566  0.84823384     0.11000
H586        H  0.83874159  0.46027462  0.87774013     0.13000
C587        C  0.87695158  0.32952042  0.74980689     0.19100
C588        C  0.90034548  0.32025176  0.74336303    -0.19000
C589        C  0.90549390  0.29597024  0.75280624    -0.11300
C590        C  0.88736706  0.28049337  0.76962735     0.21300
C591        C  0.86404197  0.28981281  0.77662664    -0.20600
C592        C  0.85878222  0.31401970  0.76648779    -0.11500
C593        C  0.89290958  0.25530362  0.78388427    -0.15600
C594        C  0.90986467  0.24158460  0.76406564    -0.29500
C595        C  0.87243270  0.35559430  0.74042302    -0.03700
C596        C  0.85076820  0.36423120  0.72728245    -0.40300
H597        H  0.91472598  0.33187938  0.73108320     0.12500
H598        H  0.92386825  0.28959933  0.74837379     0.12100
H599        H  0.84989998  0.27836080  0.79031499     0.11600
H600        H  0.84071237  0.32069271  0.77300660     0.11800
H601        H  0.88287836  0.24797684  0.81200898     0.14500
H602        H  0.91887979  0.24818263  0.73425959     0.13300
H603        H  0.88785033  0.36786040  0.74177119     0.11000
H604        H  0.83567902  0.35187741  0.72235438     0.13000
C605        C  0.66887018  0.39201767  0.79187194     0.19100
C606        C  0.68874077  0.39345865  0.82097442    -0.19000
C607        C  0.71132786  0.40161053  0.80556640    -0.11300
C608        C  0.71444610  0.40771322  0.76050902     0.21300
C609        C  0.69472557  0.40582801  0.73135018    -0.20600
C610        C  0.67207805  0.39834435  0.74690944    -0.11500
C611        C  0.73839567  0.41437279  0.74217205    -0.15600
C612        C  0.75327499  0.43056506  0.76134482    -0.29500
C613        C  0.64507337  0.38319983  0.80830504    -0.03700
C614        C  0.62420384  0.39292558  0.79375115    -0.40300
H615        H  0.68671737  0.38842546  0.85564251     0.12500
H616        H  0.72648150  0.40246339  0.82842607     0.12100
H617        H  0.69688049  0.41016727  0.69638781     0.11600
H618        H  0.65723736  0.39688619  0.72348162     0.11800
H619        H  0.74309435  0.40704441  0.70981994     0.14500
H620        H  0.74774272  0.43982176  0.79145652     0.13300
H621        H  0.64472794  0.36922561  0.83387988     0.11000
H622        H  0.62474975  0.40840592  0.77129965     0.13000
C623        C  0.78624958  0.38341029  0.21504067     0.19100
C624        C  0.76915524  0.39541620  0.18839218    -0.19000
C625        C  0.74689069  0.40263828  0.20631193    -0.11300
C626        C  0.74119109  0.39742654  0.25097573     0.21300
C627        C  0.75784601  0.38436963  0.27688392    -0.20600
C628        C  0.78028067  0.37766887  0.25930422    -0.11500
C629        C  0.71803646  0.40516957  0.27150286    -0.15600
C630        C  0.70723693  0.42631960  0.26138770    -0.29500
C631        C  0.81049527  0.37752329  0.19681262    -0.03700
C632        C  0.83063280  0.38231599  0.22030750    -0.40300
H633        H  0.77332750  0.39981236  0.15408751     0.12500
H634        H  0.73412798  0.41213462  0.18518562     0.12100
H635        H  0.75372476  0.37987789  0.31117681     0.11600
H636        H  0.79300271  0.36800577  0.28029387     0.11800
H637        H  0.71071212  0.39402854  0.29822556     0.14500
H638        H  0.71545658  0.43842834  0.23710402     0.13300
H639        H  0.81191122  0.37099312  0.16289746     0.11000
H640        H  0.82892555  0.39098477  0.25253557     0.13000
C641        C  0.74429600  0.48825642  0.55048123     0.19100
C642        C  0.71911327  0.48454985  0.54871281    -0.19000
C643        C  0.70659521  0.48619053  0.50830045    -0.11300
C644        C  0.71918685  0.49086028  0.46859428     0.21300
C645        C  0.74415867  0.49576812  0.47058184    -0.20600
C646        C  0.75658065  0.49488741  0.51130346    -0.11500
C647        C  0.70769941  0.48530964  0.42520392    -0.15600
C648        C  0.68498488  0.49191584  0.41434091    -0.29500
C649        C  0.75765588  0.48036017  0.59092747    -0.03700
C650        C  0.77867183  0.49002882  0.60544911    -0.40300
H651        H  0.70931721  0.47903887  0.57831198     0.12500
H652        H  0.68747217  0.48171537  0.50758524     0.12100
H653        H  0.75428648  0.49898030  0.44026371     0.11600
H654        H  0.77605828  0.49733070  0.51144641     0.11800
H655        H  0.71752516  0.47325167  0.40319237     0.14500
H656        H  0.67530169  0.50504204  0.43433603     0.13300
H657        H  0.75018118  0.46486998  0.60877809     0.11000
H658        H  0.78574387  0.50663803  0.59092326     0.13000
C659        C  0.60529652  0.32292605  0.31972331     0.19100
C660        C  0.62141569  0.30380575  0.31203745    -0.19000
C661        C  0.61265323  0.28062704  0.30211367    -0.11300
C662        C  0.58754044  0.27609465  0.30052568     0.21300
C663        C  0.57149240  0.29488838  0.31088114    -0.20600
C664        C  0.58022911  0.31811085  0.32009218    -0.11500
C665        C  0.57748540  0.25217576  0.28746801    -0.15600
C666        C  0.58818192  0.23812494  0.25683208    -0.29500
C667        C  0.61489477  0.34775195  0.32708191    -0.03700
C668        C  0.60324526  0.36737348  0.31137673    -0.40300
H669        H  0.64079847  0.30697591  0.31245679     0.12500
H670        H  0.62552968  0.26631462  0.29567575     0.12100
H671        H  0.55209911  0.29175820  0.31060436     0.11600
H672        H  0.56734255  0.33228372  0.32746987     0.11800
H673        H  0.55970423  0.24713099  0.30005567     0.14500
H674        H  0.60499416  0.24405695  0.24143080     0.13300
H675        H  0.63219695  0.34983507  0.34393452     0.11000
H676        H  0.58668895  0.36498497  0.29227855     0.13000
C677        C  0.57971657  0.41297567  0.02200113     0.19100
C678        C  0.60268043  0.41198343  0.04199050    -0.19000
C679        C  0.60652397  0.42181720  0.08408561    -0.11300
C680        C  0.58732267  0.43267307  0.10728456     0.21300
C681        C  0.56429036  0.43347713  0.08750447    -0.20600
C682        C  0.56050617  0.42388716  0.04509314    -0.11500
C683        C  0.59034092  0.44138122  0.15349384    -0.15600
C684        C  0.61151897  0.44980241  0.16945769    -0.29500
C685        C  0.57626487  0.40104442  0.97844398    -0.03700
C686        C  0.55904120  0.40730262  0.94881165    -0.40300
H687        H  0.61766800  0.40333124  0.02513183     0.12500
H688        H  0.62431119  0.42009832  0.09894999     0.12100
H689        H  0.54913391  0.44133995  0.10513373     0.11600
H690        H  0.54240976  0.42432928  0.03122888     0.11800
H691        H  0.57460167  0.44054817  0.17517202     0.14500
H692        H  0.62696955  0.45203464  0.14745373     0.13300
H693        H  0.58918950  0.38701957  0.96971353     0.11000
H694        H  0.54704895  0.42243481  0.95524141     0.13000
C695        C  0.54981700  0.41201768  0.60216481     0.19100
C696        C  0.56414767  0.43246231  0.59283745    -0.19000
C697        C  0.57025317  0.43851369  0.54919488    -0.11300
C698        C  0.56212003  0.42421994  0.51368856     0.21300
C699        C  0.54663021  0.40459126  0.52255417    -0.20600
C700        C  0.54059129  0.39840490  0.56643722    -0.11500
C701        C  0.57056356  0.42879342  0.46758866    -0.15600
C702        C  0.59337021  0.43617099  0.45934012    -0.29500
C703        C  0.54560810  0.40572371  0.64966081    -0.03700
C704        C  0.53630855  0.38464087  0.66487683    -0.40300
H705        H  0.57117176  0.44354220  0.61956110     0.12500
H706        H  0.58158261  0.45424142  0.54334574     0.12100
H707        H  0.53989725  0.39351653  0.49558566     0.11600
H708        H  0.52896333  0.38291330  0.57194900     0.11800
H709        H  0.55890214  0.42352292  0.44012801     0.14500
H710        H  0.60580682  0.43906497  0.48684556     0.13300
H711        H  0.55161889  0.41904447  0.67379043     0.11000
H712        H  0.53004977  0.37077367  0.64222136     0.13000
C713        C  0.06637137  0.04786033  0.75358523     0.19100
C714        C  0.07085877  0.07195847  0.76604032    -0.19000
C715        C  0.05165340  0.08755727  0.77666262    -0.11300
C716        C  0.02751134  0.07917279  0.77546518     0.21300
C717        C  0.02318841  0.05502926  0.76343820    -0.20600
C718        C  0.04224440  0.03957578  0.75279561    -0.11500
C719        C  0.00603268  0.09438089  0.78630156    -0.15600
C720        C  0.00616822  0.11849801  0.79329342    -0.29500
C721        C  0.08705114  0.03110401  0.74544818    -0.03700
C722        C  0.08471878  0.01060360  0.72166034    -0.40300
H723        H  0.08929039  0.07869293  0.76776025     0.12500
H724        H  0.05592330  0.10590633  0.78622712     0.12100
H725        H  0.00486935  0.04792549  0.76258232     0.11600
H726        H  0.03789451  0.02093301  0.74538098     0.11800
H727        H  0.98864256  0.08508607  0.78644183     0.14500
H728        H  0.02294753  0.12872576  0.79236886     0.13300
H729        H  0.10420265  0.03503933  0.76170393     0.11000
H730        H  0.06789354  0.00685160  0.70428444     0.13000
C731        C  0.46656526  0.07800654  0.28368425     0.19100
C732        C  0.44208567  0.08184518  0.27237322    -0.19000
C733        C  0.42411445  0.06499272  0.28517814    -0.11300
C734        C  0.43024408  0.04397132  0.30972077     0.21300
C735        C  0.45458585  0.04072268  0.32191553    -0.20600
C736        C  0.47240149  0.05739796  0.30910706    -0.11500
C737        C  0.41274164  0.02384124  0.31997526    -0.15600
C738        C  0.38842991  0.02502109  0.31520307    -0.29500
C739        C  0.48701507  0.09374779  0.26795823    -0.03700
C740        C  0.48535717  0.11651671  0.25118046    -0.40300
H741        H  0.43684732  0.09729914  0.25235497     0.12500
H742        H  0.40571618  0.06814302  0.27428597     0.12100
H743        H  0.46001957  0.02481174  0.34061934     0.11600
H744        H  0.49103438  0.05386665  0.31848169     0.11800
H745        H  0.42055912  0.00663264  0.33015609     0.14500
H746        H  0.37996190  0.04196404  0.30566013     0.13300
H747        H  0.50503101  0.08609465  0.27194400     0.11000
H748        H  0.46794626  0.12552693  0.24901397     0.13000
C749        C  0.22283254  0.99345529  0.55723325     0.19100
C750        C  0.24810788  0.99630998  0.55489638    -0.19000
C751        C  0.25979501  0.99857992  0.51371329    -0.11300
C752        C  0.24640332  0.99732522  0.47400216     0.21300
C753        C  0.22100516  0.99583190  0.47646669    -0.20600
C754        C  0.20926696  0.99424597  0.51769419    -0.11500
C755        C  0.25849046  0.99189240  0.43108719    -0.15600
C756        C  0.28072581  0.99979240  0.41925795    -0.29500
C757        C  0.21175372  0.98484980  0.59945173    -0.03700
C758        C  0.18920179  0.99047869  0.61293948    -0.40300
H759        H  0.25895786  0.99539502  0.58490196     0.12500
H760        H  0.27941021  0.99910203  0.51296078     0.12100
H761        H  0.21033043  0.99438508  0.44633605     0.11600
H762        H  0.18982599  0.99151955  0.51837736     0.11800
H763        H  0.24954891  0.97861292  0.41005927     0.14500
H764        H  0.28968200  0.01415385  0.43755986     0.13300
H765        H  0.22228924  0.97212953  0.61926953     0.11000
H766        H  0.17885936  0.00446390  0.59599327     0.13000
C767        C  0.90640645  0.55020929  0.75673148     0.19100
C768        C  0.90338055  0.57329728  0.77535259    -0.19000
C769        C  0.92354459  0.58694834  0.78918354    -0.11300
C770        C  0.94716491  0.57750317  0.78527295     0.21300
C771        C  0.94998754  0.55416828  0.76780522    -0.20600
C772        C  0.92998763  0.54071960  0.75370908    -0.11500
C773        C  0.96955391  0.59093479  0.79829469    -0.15600
C774        C  0.97104027  0.61504513  0.80480282    -0.29500
C775        C  0.88484822  0.53525738  0.74454537    -0.03700
C776        C  0.88590109  0.51783879  0.71334859    -0.40300
H777        H  0.88537645  0.58078295  0.77915644     0.12500
H778        H  0.92045404  0.60461539  0.80335923     0.12100
H779        H  0.96785861  0.54623862  0.76487776     0.11600
H780        H  0.93308685  0.52258198  0.74158344     0.11800
H781        H  0.98625348  0.58052633  0.79881276     0.14500
H782        H  0.95496200  0.62624641  0.80273269     0.13300
H783        H  0.86850590  0.53723402  0.76433441     0.11000
H784        H  0.90216514  0.51609049  0.69331525     0.13000
C785        C  0.10569538  0.82446804  0.77051743     0.19100
C786        C  0.08184914  0.81560723  0.77006658    -0.19000
C787        C  0.07692726  0.79136213  0.77997982    -0.11300
C788        C  0.09578067  0.77534544  0.79114034     0.21300
C789        C  0.11962281  0.78428875  0.79286874    -0.20600
C790        C  0.12462062  0.80858095  0.78223041    -0.11500
C791        C  0.09056436  0.74972362  0.80353469    -0.15600
C792        C  0.07231807  0.73714969  0.78472688    -0.29500
C793        C  0.10968965  0.85051994  0.75990087    -0.03700
C794        C  0.13034253  0.85959017  0.74259388    -0.40300
H795        H  0.06690321  0.82751285  0.76183223     0.12500
H796        H  0.05823981  0.78534673  0.77991452     0.12100
H797        H  0.13439589  0.77242553  0.80225311     0.11600
H798        H  0.14315411  0.81494063  0.78413491     0.11800
H799        H  0.10172858  0.74122058  0.82894678     0.14500
H800        H  0.06213517  0.74528090  0.75757541     0.13300
H801        H  0.09423836  0.86250479  0.76374210     0.11000
H802        H  0.14553943  0.84770915  0.73590757     0.13000
C803        C  0.92496701  0.97063586  0.30243133     0.19100
C804        C  0.91856570  0.95072605  0.27560765    -0.19000
C805        C  0.93618126  0.93365664  0.26308592    -0.11300
C806        C  0.96040606  0.93638459  0.27702831     0.21300
C807        C  0.96636892  0.95578312  0.30488948    -0.20600
C808        C  0.94894254  0.97257902  0.31746579    -0.11500
C809        C  0.98066000  0.92080063  0.26174216    -0.15600
C810        C  0.97878437  0.89802637  0.24605689    -0.29500
C811        C  0.90858559  0.99141877  0.31148605    -0.03700
C812        C  0.88442098  0.99196417  0.30473867    -0.40300
H813        H  0.90037906  0.94881784  0.26264769     0.12500
H814        H  0.93102629  0.91906993  0.24112504     0.12100
H815        H  0.98483673  0.95831918  0.31629320     0.11600
H816        H  0.95448095  0.98769312  0.33796987     0.11800
H817        H  0.99871393  0.92832422  0.26637248     0.14500
H818        H  0.96125266  0.88918867  0.24355031     0.13300
H819        H  0.91745526  0.00793377  0.32251142     0.11000
H820        H  0.87465328  0.97572511  0.29525697     0.13000
C821        C  0.17015318  0.90026446  0.23615252     0.19100
C822        C  0.17718302  0.92466367  0.23946189    -0.19000
C823        C  0.20115397  0.93099791  0.24941407    -0.11300
C824        C  0.21873251  0.91296502  0.25643105     0.21300
C825        C  0.21175695  0.88858443  0.25301168    -0.20600
C826        C  0.18781159  0.88224099  0.24294629    -0.11500
C827        C  0.24378919  0.91865732  0.27156248    -0.15600
C828        C  0.25477317  0.94031490  0.26609760    -0.29500
C829        C  0.14411300  0.89462773  0.22757688    -0.03700
C830        C  0.13553395  0.87264927  0.21601760    -0.40300
H831        H  0.16396285  0.93894433  0.23495025     0.12500
H832        H  0.20554070  0.94997189  0.25311369     0.12100
H833        H  0.22483648  0.87432105  0.25894306     0.11600
H834        H  0.18327851  0.86321941  0.24187902     0.11800
H835        H  0.25343921  0.90433743  0.28902595     0.14500
H836        H  0.24606642  0.95457203  0.24699664     0.13300
H837        H  0.13137183  0.90951390  0.23052018     0.11000
H838        H  0.14773672  0.85753402  0.21138877     0.13000
C839        C  0.00827572  0.73293109  0.99658761     0.19100
C840        C  0.00912693  0.72992970  0.04294286    -0.19000
C841        C  0.00801740  0.74999682  0.07112051    -0.11300
C842        C  0.00651933  0.77356437  0.05330508     0.21300
C843        C  0.00454304  0.77646079  0.00705874    -0.20600
C844        C  0.00519684  0.75637317  0.97894015    -0.11500
C845        C  0.01183207  0.79515511  0.08091129    -0.15600
C846        C  0.00759606  0.79627815  0.12494703    -0.29500
C847        C  0.01492082  0.71226639  0.96763987    -0.03700
C848        C  0.00791735  0.71039307  0.92487599    -0.40300
H849        H  0.01189268  0.71211582  0.05730324     0.12500
H850        H  0.01026664  0.74710676  0.10651088     0.12100
H851        H  0.00382132  0.79443173  0.99249976     0.11600
H852        H  0.00516943  0.75946872  0.94336993     0.11800
H853        H  0.02192928  0.80972878  0.06496792     0.14500
H854        H  0.99629935  0.78267545  0.14097354     0.13300
H855        H  0.02774035  0.69922705  0.98111894     0.11000
H856        H  0.99407609  0.72242783  0.91175923     0.13000
C857        C  0.10104350  0.90487412  0.50592711     0.19100
C858        C  0.10544982  0.88345698  0.48250514    -0.19000
C859        C  0.09392592  0.87922099  0.44190221    -0.11300
C860        C  0.07829445  0.89667844  0.42363824     0.21300
C861        C  0.07424505  0.91830071  0.44657286    -0.20600
C862        C  0.08528607  0.92228102  0.48770295    -0.11500
C863        C  0.06803572  0.89364804  0.37874938    -0.15600
C864        C  0.05907255  0.87246236  0.36435705    -0.29500
C865        C  0.11368467  0.90898816  0.54857344    -0.03700
C866        C  0.10300994  0.92035125  0.58265869    -0.40300
H867        H  0.11776489  0.86997007  0.49574968     0.12500
H868        H  0.09785106  0.86270047  0.42408289     0.12100
H869        H  0.06260454  0.93214193  0.43251395     0.11600
H870        H  0.08204319  0.93923645  0.50456307     0.11800
H871        H  0.06800850  0.90935658  0.35679663     0.14500
H872        H  0.05718464  0.85722728  0.38712086     0.13300
H873        H  0.13163137  0.90123587  0.55291470     0.11000
H874        H  0.08430552  0.92627873  0.57975724     0.13000
C875        C  0.08729107  0.90913812  0.01134986     0.19100
C876        C  0.11093072  0.90942719  0.99416455    -0.19000
C877        C  0.11596381  0.92077543  0.95359529    -0.11300
C878        C  0.09729036  0.93184753  0.92909707     0.21300
C879        C  0.07368568  0.93184164  0.94656153    -0.20600
C880        C  0.06870516  0.92074014  0.98747121    -0.11500
C881        C  0.10116226  0.94062542  0.88299420    -0.15600
C882        C  0.12274195  0.94802563  0.86686370    -0.29500
C883        C  0.08256984  0.89510223  0.05254431    -0.03700
C884        C  0.06450144  0.89987558  0.08121769    -0.40300
H885        H  0.12549593  0.90039822  0.01180872     0.12500
H886        H  0.13420948  0.91976185  0.94058670     0.12100
H887        H  0.05893053  0.93989948  0.92789850     0.11600
H888        H  0.05018377  0.92037095  0.99927243     0.11800
H889        H  0.08559504  0.94002870  0.86082408     0.14500
H890        H  0.13816469  0.95039973  0.88886626     0.13300
H891        H  0.09544016  0.88087634  0.06077151     0.11000
H892        H  0.05259768  0.91523681  0.07581144     0.13000
C893        C  0.01804308  0.42580760  0.25645725     0.19100
C894        C  0.03854372  0.42162855  0.28332028    -0.19000
C895        C  0.05409132  0.44077116  0.29528785    -0.11300
C896        C  0.04916275  0.46459215  0.28104534     0.21300
C897        C  0.02876169  0.46863868  0.25413141    -0.20600
C898        C  0.01342471  0.44965324  0.24206088    -0.11500
C899        C  0.06383650  0.48612968  0.29418616    -0.15600
C900        C  0.08682054  0.48583368  0.30966144    -0.29500
C901        C  0.00042684  0.40574208  0.24758214    -0.03700
C902        C  0.98446853  0.40643841  0.21356255    -0.40300
H903        H  0.04234351  0.40355645  0.29558378     0.12500
H904        H  0.06942910  0.43693932  0.31659117     0.12100
H905        H  0.02436908  0.48677380  0.24285056     0.11600
H906        H  0.99742550  0.45408688  0.22293933     0.11800
H907        H  0.05563786  0.50365763  0.28742497     0.14500
H908        H  0.09642047  0.46884892  0.31376927     0.13300
H909        H  0.99935222  0.39100881  0.27160319     0.11000
H910        H  0.98565047  0.42087211  0.18905259     0.13000
C911        C  0.06118245  0.61491824  0.60736588     0.19100
C912        C  0.05918863  0.59181852  0.58838413    -0.19000
C913        C  0.06889281  0.58715100  0.54631223    -0.11300
C914        C  0.08117184  0.60548231  0.52274409     0.21300
C915        C  0.08317799  0.62856055  0.54175431    -0.20600
C916        C  0.07312333  0.63333479  0.58346275    -0.11500
C917        C  0.09358321  0.60077968  0.47990234    -0.15600
C918        C  0.08603776  0.58425132  0.45011469    -0.29500
C919        C  0.05318767  0.61844303  0.65397053    -0.03700
C920        C  0.04630864  0.63992895  0.67085228    -0.40300
H921        H  0.05047389  0.57721816  0.60655431     0.12500
H922        H  0.06759636  0.56899176  0.53316681     0.12100
H923        H  0.09285580  0.64287654  0.52448862     0.11600
H924        H  0.07566794  0.65111817  0.59768588     0.11800
H925        H  0.10911189  0.61213372  0.47184024     0.14500
H926        H  0.06948339  0.57404777  0.45590659     0.13300
H927        H  0.05343939  0.60259553  0.67557397     0.11000
H928        H  0.04421510  0.65561092  0.64927280     0.13000
C929        C  0.08658416  0.59409695  0.02262362     0.19100
C930        C  0.10944598  0.59483213  0.04320326    -0.19000
C931        C  0.11347402  0.58289003  0.08369850    -0.11300
C932        C  0.09455166  0.57014216  0.10469459     0.21300
C933        C  0.07186013  0.56896582  0.08367666    -0.20600
C934        C  0.06790123  0.58067377  0.04296740    -0.11500
C935        C  0.09679319  0.56101406  0.15101712    -0.15600
C936        C  0.11787842  0.55440987  0.17017767    -0.29500
C937        C  0.08243385  0.60904635  0.98204848    -0.03700
C938        C  0.06469314  0.60479682  0.95224610    -0.40300
H939        H  0.12408635  0.60521642  0.02844751     0.12500
H940        H  0.13099109  0.58478445  0.09953699     0.12100
H941        H  0.05689340  0.55959130  0.09955901     0.11600
H942        H  0.04988829  0.58010776  0.02879587     0.11800
H943        H  0.08033826  0.56087542  0.17089577     0.14500
H944        H  0.13424472  0.55287935  0.15037458     0.13300
H945        H  0.09500462  0.62387415  0.97584036     0.11000
H946        H  0.05316723  0.58894634  0.95554837     0.13000
C947        C  0.09430096  0.73337331  0.25229450     0.19100
C948        C  0.09413052  0.71365161  0.22309740    -0.19000
C949        C  0.10114393  0.69066535  0.23779901    -0.11300
C950        C  0.10883715  0.68708834  0.28194344     0.21300
C951        C  0.10974791  0.70695808  0.31074373    -0.20600
C952        C  0.10237813  0.72988142  0.29623073    -0.11500
C953        C  0.11649014  0.66297821  0.29855790    -0.15600
C954        C  0.10609972  0.64234857  0.28457836    -0.29500
C955        C  0.08643427  0.75738983  0.23558001    -0.03700
C956        C  0.07548646  0.77385632  0.26148211    -0.40300
H957        H  0.08829190  0.71599441  0.18893432     0.12500
H958        H  0.10089617  0.67583130  0.21442266     0.12100
H959        H  0.11592072  0.70466544  0.34471576     0.11600
H960        H  0.10339056  0.74486750  0.31920023     0.11800
H961        H  0.12988901  0.66229317  0.32505559     0.14500
H962        H  0.09127370  0.64304620  0.26080876     0.13300
H963        H  0.08819567  0.76093906  0.20012992     0.11000
H964        H  0.07186706  0.76976770  0.29621589     0.13000
C965        C  0.40316861  0.46957185  0.74666776     0.19100
C966        C  0.40227356  0.45336922  0.78303080    -0.19000
C967        C  0.42160178  0.43753927  0.79213576    -0.11300
C968        C  0.44234252  0.43769472  0.76504348     0.21300
C969        C  0.44283580  0.45314119  0.72783721    -0.20600
C970        C  0.42350740  0.46865213  0.71840092    -0.11500
C971        C  0.46470571  0.42378801  0.77582587    -0.15600
C972        C  0.46580125  0.40284470  0.79920489    -0.29500
C973        C  0.38342900  0.48801876  0.74130697    -0.03700
C974        C  0.38454569  0.50704017  0.71287916    -0.40300
H975        H  0.38689308  0.45350659  0.80539486     0.12500
H976        H  0.42070695  0.42603460  0.82133905     0.12100
H977        H  0.45852411  0.45350181  0.70617526     0.11600
H978        H  0.42508382  0.48006015  0.68930668     0.11800
H979        H  0.48140782  0.43078498  0.76140503     0.14500
H980        H  0.44936390  0.39400532  0.81075580     0.13300
H981        H  0.36843421  0.48719220  0.76469936     0.11000
H982        H  0.39974402  0.50914426  0.69047335     0.13000
C983        C  0.17345449  0.63526131  0.81479873     0.19100
C984        C  0.19019750  0.62577358  0.84534918    -0.19000
C985        C  0.21341435  0.61914196  0.83123994    -0.11300
C986        C  0.22023780  0.62264231  0.78665734     0.21300
C987        C  0.20377012  0.63309585  0.75671920    -0.20600
C988        C  0.18045661  0.63907227  0.77048641    -0.11500
C989        C  0.24446625  0.61613389  0.77002218    -0.15600
C990        C  0.25634775  0.59592328  0.78237848    -0.29500
C991        C  0.14860854  0.64099096  0.82912637    -0.03700
C992        C  0.12943015  0.63354617  0.80535627    -0.40300
H993        H  0.18509095  0.62295991  0.87977252     0.12500
H994        H  0.22604742  0.61158688  0.85510874     0.12100
H995        H  0.20881843  0.63617900  0.72232791     0.11600
H996        H  0.16790749  0.64679060  0.74661227     0.11800
H997        H  0.25157241  0.62716718  0.74293887     0.14500
H998        H  0.24858399  0.58370868  0.80698806     0.13300
H999        H  0.14598130  0.65011617  0.86068751     0.11000
H1000       H  0.13211504  0.62228452  0.77623617     0.13000
C1001       C  0.24129023  0.53609434  0.56902371     0.19100
C1002       C  0.21638723  0.54092416  0.56570530    -0.19000
C1003       C  0.20403584  0.53764009  0.52552907    -0.11300
C1004       C  0.21649136  0.52990578  0.48737890     0.21300
C1005       C  0.24123457  0.52420806  0.49109078    -0.20600
C1006       C  0.25349122  0.52696292  0.53168142    -0.11500
C1007       C  0.20510630  0.53164379  0.44256195    -0.15600
C1008       C  0.18121301  0.52862805  0.43534168    -0.29500
C1009       C  0.25463441  0.54490156  0.60871615    -0.03700
C1010       C  0.27504019  0.53489100  0.62520357    -0.40300
H1011       H  0.20668802  0.54836623  0.59379162     0.12500
H1012       H  0.18516686  0.54287638  0.52368210     0.12100
H1013       H  0.25132668  0.51860474  0.46203866     0.11600
H1014       H  0.27281458  0.52364461  0.53289307     0.11800
H1015       H  0.21649972  0.53770781  0.41516629     0.14500
H1016       H  0.16947906  0.52212293  0.46180714     0.13300
H1017       H  0.24766859  0.56121429  0.62421961     0.11000
H1018       H  0.28144634  0.51760081  0.61290983     0.13000
C1019       C  0.54117429  0.53875827  0.27371849     0.19100
C1020       C  0.52052762  0.53131932  0.25018326    -0.19000
C1021       C  0.50390613  0.54819631  0.23397989    -0.11300
C1022       C  0.50728069  0.57305164  0.24111668     0.21300
C1023       C  0.52816971  0.58069566  0.26433877    -0.20600
C1024       C  0.54503429  0.56367367  0.28032998    -0.11500
C1025       C  0.48727124  0.58967929  0.22763775    -0.15600
C1026       C  0.48873518  0.61404107  0.22603006    -0.29500
C1027       C  0.55749345  0.51965029  0.29165829    -0.03700
C1028       C  0.58159342  0.52216320  0.29767113    -0.40300
H1029       H  0.51712334  0.51225422  0.24450337     0.12500
H1030       H  0.48799535  0.54170440  0.21653250     0.12100
H1031       H  0.53119185  0.59960322  0.27164343     0.11600
H1032       H  0.56055888  0.56996965  0.29904877     0.11800
H1033       H  0.46986942  0.58123115  0.22066811     0.14500
H1034       H  0.50588069  0.62311237  0.23195091     0.13300
H1035       H  0.54958129  0.50170272  0.29542263     0.11000
H1036       H  0.59038141  0.53935682  0.29055179     0.13000
C1037       C  0.38902537  0.58523683  0.92032254     0.19100
C1038       C  0.40576933  0.60363655  0.92997022    -0.19000
C1039       C  0.41111811  0.60961342  0.97398575    -0.11300
C1040       C  0.39998712  0.59708543  0.00933745     0.21300
C1041       C  0.38451579  0.57761311  0.99982860    -0.20600
C1042       C  0.37893294  0.57178852  0.95571820    -0.11500
C1043       C  0.40327097  0.60492387  0.05608135    -0.15600
C1044       C  0.40360508  0.62855321  0.06644031    -0.29500
C1045       C  0.38245115  0.58091465  0.87307229    -0.03700
C1046       C  0.36109002  0.57135901  0.86025747    -0.40300
H1047       H  0.41417172  0.61394761  0.90335895     0.12500
H1048       H  0.42369628  0.62427195  0.98036674     0.12100
H1049       H  0.37602792  0.56748809  0.02657905     0.11600
H1050       H  0.36666991  0.55686805  0.94958541     0.11800
H1051       H  0.40286630  0.59137252  0.08240570     0.14500
H1052       H  0.40176270  0.64195631  0.04005712     0.13300
H1053       H  0.39500512  0.58741116  0.84782359     0.11000
H1054       H  0.34780760  0.56583518  0.88491747     0.13000
C1055       C  0.39051487  0.60200171  0.50888274     0.19100
C1056       C  0.41072569  0.61621138  0.49777023    -0.19000
C1057       C  0.41577642  0.62178744  0.45328320    -0.11300
C1058       C  0.40069257  0.61305633  0.41907792     0.21300
C1059       C  0.38131550  0.59771527  0.43018690    -0.20600
C1060       C  0.37623786  0.59223143  0.47456081    -0.11500
C1061       C  0.40462606  0.61915045  0.37149016    -0.15600
C1062       C  0.41681469  0.63888893  0.35743978    -0.29500
C1063       C  0.38423824  0.59816738  0.55635899    -0.03700
C1064       C  0.36104999  0.59648095  0.56957282    -0.40300
H1065       H  0.42224420  0.62354380  0.52362407     0.12500
H1066       H  0.43149672  0.63283541  0.44600423     0.12100
H1067       H  0.36976222  0.59029512  0.40446005     0.11600
H1068       H  0.36107139  0.58040376  0.48188174     0.11800
H1069       H  0.39629170  0.60733664  0.34701997     0.14500
H1070       H  0.42458881  0.65142654  0.38117346     0.13300
H1071       H  0.39865392  0.59861887  0.58099187     0.11000
H1072       H  0.34660444  0.59788783  0.54513168     0.13000
C1073       C  0.29754928  0.62031204  0.23992549     0.19100
C1074       C  0.28966048  0.59613541  0.24133217    -0.19000
C1075       C  0.26590928  0.59030297  0.25365208    -0.11300
C1076       C  0.24932140  0.60861516  0.26492054     0.21300
C1077       C  0.25722711  0.63280006  0.26378754    -0.20600
C1078       C  0.28101775  0.63864946  0.25135731    -0.11500
C1079       C  0.22429477  0.60307941  0.28083712    -0.15600
C1080       C  0.21271665  0.58209349  0.27236339    -0.29500
C1081       C  0.32342959  0.62528508  0.22878781    -0.03700
C1082       C  0.33225412  0.64712465  0.21657322    -0.40300
H1083       H  0.30205149  0.58160003  0.23337102     0.12500
H1084       H  0.26099023  0.57137285  0.25558752     0.12100
H1085       H  0.24499709  0.64724221  0.27301381     0.11600
H1086       H  0.28642951  0.65746142  0.25202169     0.11800
H1087       H  0.21521098  0.61671169  0.30068452     0.14500
H1088       H  0.22108138  0.56866312  0.25117915     0.13300
H1089       H  0.33578534  0.60999574  0.23015257     0.11000
H1090       H  0.32024608  0.66252188  0.21296585     0.13000
C1091       C  0.37980858  0.78430420  0.26619724     0.19100
C1092       C  0.35757449  0.79589042  0.25832746    -0.19000
C1093       C  0.35417404  0.82013176  0.27022300    -0.11300
C1094       C  0.37312219  0.83344133  0.28988373     0.21300
C1095       C  0.39540277  0.82193004  0.29741923    -0.20600
C1096       C  0.39872682  0.79763394  0.28595150    -0.11500
C1097       C  0.37066766  0.85958542  0.30084312    -0.15600
C1098       C  0.34941058  0.86979178  0.31193185    -0.29500
C1099       C  0.38335281  0.75912614  0.24986619    -0.03700
C1100       C  0.40022816  0.74392639  0.26638451    -0.40300
H1101       H  0.34285879  0.78622049  0.24240535     0.12500
H1102       H  0.33696512  0.82856684  0.26266337     0.12100
H1103       H  0.41038171  0.83184603  0.31195347     0.11600
H1104       H  0.41641146  0.78970163  0.29117643     0.11800
H1105       H  0.38705703  0.87053526  0.30159792     0.14500
H1106       H  0.33323367  0.85863686  0.31446588     0.13300
H1107       H  0.37202336  0.75316708  0.22241974     0.11000
H1108       H  0.41099444  0.74925574  0.29493842     0.13000
C1109       C  0.56598105  0.97384046  0.75076649     0.19100
C1110       C  0.56686923  0.95806621  0.78767453    -0.19000
C1111       C  0.54667075  0.94400700  0.79977588    -0.11300
C1112       C  0.52503270  0.94549747  0.77519619     0.21300
C1113       C  0.52419815  0.96095697  0.73807854    -0.20600
C1114       C  0.54442048  0.97469290  0.72557784    -0.11500
C1115       C  0.50275604  0.93174946  0.78738760    -0.15600
C1116       C  0.50284385  0.90980560  0.80722924    -0.29500
C1117       C  0.58733279  0.98991401  0.74138689    -0.03700
C1118       C  0.58636055  0.00954380  0.71455395    -0.40300
H1119       H  0.58310369  0.95700071  0.80786997     0.12500
H1120       H  0.54783746  0.93253796  0.82899093     0.12100
H1121       H  0.50779958  0.96230182  0.71836648     0.11600
H1122       H  0.54279343  0.98589677  0.69620981     0.11800
H1123       H  0.48558638  0.93906543  0.77575745     0.14500
H1124       H  0.51991010  0.90116805  0.81565327     0.13300
H1125       H  0.60361285  0.98711268  0.76113450     0.11000
H1126       H  0.56979980  0.01392099  0.69697548     0.13000
C1127       C  0.37957142  0.69479161  0.75513764     0.19100
C1128       C  0.40250900  0.70471426  0.74624149    -0.19000
C1129       C  0.40803410  0.72850161  0.75851692    -0.11300
C1130       C  0.39075915  0.74276354  0.78062359     0.21300
C1131       C  0.36794263  0.73270032  0.79011329    -0.20600
C1132       C  0.36229101  0.70903556  0.77721847    -0.11500
C1133       C  0.39655574  0.76746668  0.79698937    -0.15600
C1134       C  0.41271574  0.78226998  0.77707666    -0.29500
C1135       C  0.37469759  0.66918155  0.74312975    -0.03700
C1136       C  0.35255407  0.66094783  0.73191701    -0.40300
H1137       H  0.41623530  0.69397823  0.72985234     0.12500
H1138       H  0.42607021  0.73536447  0.75192116     0.12100
H1139       H  0.35448177  0.74316138  0.80778518     0.11600
H1140       H  0.34467335  0.70171668  0.78574794     0.11800
H1141       H  0.38697546  0.77372367  0.82631454     0.14500
H1142       H  0.42135938  0.77679147  0.74631592     0.13300
H1143       H  0.39007378  0.65694255  0.74162359     0.11000
H1144       H  0.33738756  0.67340776  0.72992807     0.13000
C1145       C  0.46722435  0.74217111  0.04663912     0.19100
C1146       C  0.46515388  0.73963824  0.00038196    -0.19000
C1147       C  0.46879656  0.75948610  0.97208665    -0.11300
C1148       C  0.47415045  0.78243206  0.98968811     0.21300
C1149       C  0.47756417  0.78467089  0.03572918    -0.20600
C1150       C  0.47437920  0.76469449  0.06399117    -0.11500
C1151       C  0.47096383  0.80463424  0.96234825    -0.15600
C1152       C  0.47474918  0.80538251  0.91815926    -0.29500
C1153       C  0.45754954  0.72263302  0.07574104    -0.03700
C1154       C  0.46388295  0.71951603  0.11864107    -0.40300
H1155       H  0.45932919  0.72257822  0.98626649     0.12500
H1156       H  0.46536009  0.75723960  0.93689780     0.12100
H1157       H  0.48127656  0.80223878  0.05010072     0.11600
H1158       H  0.47558201  0.76747569  0.09951868     0.11800
H1159       H  0.46219718  0.81989309  0.97834649     0.14500
H1160       H  0.48481738  0.79098561  0.90212304     0.13300
H1161       H  0.44321566  0.71139842  0.06193567     0.11000
H1162       H  0.47922259  0.72929109  0.13240552     0.13000
C1163       C  0.26134360  0.91075655  0.77864781     0.19100
C1164       C  0.26974292  0.88692228  0.78306292    -0.19000
C1165       C  0.29386537  0.88225855  0.79431676    -0.11300
C1166       C  0.31023600  0.90148668  0.80134438     0.21300
C1167       C  0.30176485  0.92533517  0.79700636    -0.20600
C1168       C  0.27763747  0.92998169  0.78573768    -0.11500
C1169       C  0.33639656  0.89773397  0.81132470    -0.15600
C1170       C  0.34630029  0.87621659  0.82195954    -0.29500
C1171       C  0.23608471  0.91470126  0.76325589    -0.03700
C1172       C  0.22388358  0.93555937  0.76858209    -0.40300
H1173       H  0.25763934  0.87179488  0.77717470     0.12500
H1174       H  0.29948157  0.86357385  0.79624759     0.12100
H1175       H  0.31397909  0.94049929  0.80169924     0.11600
H1176       H  0.27215003  0.94861419  0.78124827     0.11800
H1177       H  0.34807706  0.91360137  0.81005043     0.14500
H1178       H  0.33521091  0.86008716  0.82493040     0.13300
H1179       H  0.22724913  0.89972920  0.74636322     0.11000
H1180       H  0.23184790  0.95041004  0.78703478     0.13000
C1181       C  0.40939747  0.91164077  0.61627742     0.19100
C1182       C  0.39063088  0.92818592  0.60778286    -0.19000
C1183       C  0.38459211  0.93489555  0.56430556    -0.11300
C1184       C  0.39716349  0.92513238  0.52790787     0.21300
C1185       C  0.41659069  0.90935332  0.53629347    -0.20600
C1186       C  0.42263424  0.90256260  0.57995584    -0.11500
C1187       C  0.39006945  0.93070219  0.48107212    -0.15600
C1188       C  0.36698340  0.93560139  0.46966107    -0.29500
C1189       C  0.41435068  0.90485101  0.66352912    -0.03700
C1190       C  0.42910196  0.88680673  0.67727241    -0.40300
H1191       H  0.38037140  0.93584773  0.63498511     0.12500
H1192       H  0.37010374  0.94781082  0.55942833     0.12100
H1193       H  0.42679225  0.90182871  0.50890080     0.11600
H1194       H  0.43762369  0.89027467  0.58478676     0.11800
H1195       H  0.40358176  0.92864498  0.45509766     0.14500
H1196       H  0.35305602  0.93560371  0.49514678     0.13300
H1197       H  0.40474465  0.91516985  0.68862247     0.11000
H1198       H  0.43889733  0.87588100  0.65350184     0.17800
C1199       C  0.39217841  0.91431533  0.03383495     0.19100
C1200       C  0.36871835  0.91428418  0.05193618    -0.19000
C1201       C  0.36402936  0.92530509  0.09283317    -0.11300
C1202       C  0.38286179  0.93632672  0.11697886     0.21300
C1203       C  0.40632233  0.93648181  0.09880492    -0.20600
C1204       C  0.41094142  0.92579033  0.05748587    -0.11500
C1205       C  0.37908844  0.94533170  0.16303617    -0.15600
C1206       C  0.35777220  0.95399892  0.17798684    -0.29500
C1207       C  0.39658116  0.90085480  0.99184186    -0.03700
C1208       C  0.41423069  0.90643003  0.96251519    -0.40300
H1209       H  0.35399241  0.90536642  0.03462639     0.12500
H1210       H  0.34587839  0.92419518  0.10631990     0.12100
H1211       H  0.42121661  0.94452281  0.11704750     0.11600
H1212       H  0.42934537  0.92569991  0.04507237     0.11800
H1213       H  0.39440298  0.94429961  0.18572521     0.14500
H1214       H  0.34281173  0.95667839  0.15500847     0.13300
H1215       H  0.38391937  0.88642940  0.98368807     0.11000
H1216       H  0.42583264  0.92201822  0.96814089     0.13000
loop_ 
_geom_bond_atom_site_label_1 
_geom_bond_atom_site_label_2 
_geom_bond_distance 
_geom_bond_site_symmetry_2 
_ccdc_geom_bond_type 
Fe1          O17   2.066       .  S
Fe1           O7   2.080       .  S
Fe1          O14   2.086       .  S
Fe1           O6   2.053       .  S
Fe1          O12   1.956       .  S
Fe2           O5   2.052       .  S
Fe2           O9   2.086       .  S
Fe2          O13   2.050       .  S
Fe2          O18   2.083       .  S
Fe2          O12   1.956       .  S
Fe3          O21   2.096       .  S
Fe3           O8   2.060       .  S
Fe3          O15   2.069       .  S
Fe3           O4   2.097       .  S
Fe3          O12   1.960       .  S
O4           C11   1.275       .  A
O5           C19   1.270       .  A
O6           C11   1.270       .  A
O7           C10   1.273       .  A
O8           C20   1.267       .  A
O9           C22   1.272       .  A
C10          O15   1.269       .  A
C10        C1116   1.482       .  S
C11        C1190   1.485       .  S
O13          C16   1.267       .  A
O14          C16   1.274       .  A
C16        C1170   1.475       .  S
O17          C22   1.268       .  A
O18          C20   1.272       .  A
C19          O21   1.275       .  A
C19        C1152   1.478       .  S
C20        C1134   1.480       .  S
C22        C1208   1.482       .  S
Fe23         O39   2.073       .  S
Fe23         O29   2.066       .  S
Fe23         O36   2.071       .  S
Fe23         O28   2.062       .  S
Fe23         O34   1.982       .  S
Fe24         O27   2.057       .  S
Fe24         O31   2.061       .  S
Fe24         O35   2.067       .  S
Fe24         O40   2.070       .  S
Fe24         O34   1.976       .  S
Fe25         O43   2.080       .  S
Fe25         O30   2.065       .  S
Fe25         O37   2.070       .  S
Fe25         O26   2.073       .  S
Fe25         O34   1.980       .  S
O26          C33   1.272       .  A
O27          C41   1.270       .  A
O28          C33   1.272       .  A
O29          C32   1.269       .  A
O30          C42   1.267       .  A
O31          C44   1.268       .  A
C32          O37   1.267       .  A
C32        C1026   1.485       .  S
C33        C1062   1.476       .  S
O35          C38   1.267       .  A
O36          C38   1.269       .  A
C38        C1082   1.482       .  S
O39          C44   1.271       .  A
O40          C42   1.268       .  A
C41          O43   1.272       .  A
C41        C1154   1.479       .  S
C42        C1100   1.481       .  S
C44        C1044   1.474       .  S
Fe45         O61   2.063       .  S
Fe45         O51   2.084       .  S
Fe45         O58   2.086       .  S
Fe45         O50   2.057       .  S
Fe45         O56   1.964       .  S
Fe46         O49   2.032       .  S
Fe46         O53   2.069       .  S
Fe46         O57   2.045       .  S
Fe46         O62   2.073       .  S
Fe46         O56   1.960       .  S
Fe47         O65   2.092       .  S
Fe47         O52   2.083       .  S
Fe47         O59   2.064       .  S
Fe47         O48   2.087       .  S
Fe47         O56   1.972       .  S
O48          C55   1.270       .  A
O49          C63   1.263       .  A
O50          C55   1.265       .  A
O51          C54   1.277       .  A
O52          C64   1.274       .  A
O53          C66   1.267       .  A
C54          O59   1.273       .  A
C54        C1046   1.479       .  S
C55         C974   1.481       .  S
O57          C60   1.266       .  A
O58          C60   1.274       .  A
C60        C1064   1.471       .  S
O61          C66   1.267       .  A
O62          C64   1.272       .  A
C63          O65   1.271       .  A
C63         C990   1.476       .  S
C64        C1010   1.482       .  S
C66        C1136   1.478       .  S
Fe67         O83   2.060       .  S
Fe67         O73   2.061       .  S
Fe67         O80   2.074       .  S
Fe67         O72   2.056       .  S
Fe67         O78   1.977       .  S
Fe68         O71   2.066       .  S
Fe68         O75   2.063       .  S
Fe68         O79   2.066       .  S
Fe68         O84   2.066       .  S
Fe68         O78   1.981       .  S
Fe69         O87   2.065       .  S
Fe69         O74   2.088       .  S
Fe69         O81   2.084       .  S
Fe69         O70   2.077       .  S
Fe69         O78   1.979       .  S
O70          C77   1.266       .  A
O71          C85   1.266       .  A
O72          C77   1.265       .  A
O73          C76   1.273       .  A
O74          C86   1.276       .  A
O75          C88   1.267       .  A
C76          O81   1.276       .  A
C76         C936   1.480       .  S
C77         C900   1.486       .  S
O79          C82   1.271       .  A
O80          C82   1.271       .  A
C82         C918   1.479       .  S
O83          C88   1.265       .  A
O84          C86   1.271       .  A
C85          O87   1.265       .  A
C85        C1080   1.480       .  S
C86        C1008   1.473       .  S
C88         C954   1.474       .  S
Fe89        O105   2.061       .  S
Fe89         O95   2.062       .  S
Fe89        O102   2.082       .  S
Fe89         O94   2.044       .  S
Fe89        O100   1.959       .  S
Fe90         O93   2.056       .  S
Fe90         O97   2.072       .  S
Fe90        O101   2.061       .  S
Fe90        O106   2.070       .  S
Fe90        O100   1.958       .  S
Fe91        O109   2.094       .  S
Fe91         O96   2.059       .  S
Fe91        O103   2.079   1_455  S
Fe91         O92   2.084       .  S
Fe91        O100   1.967       .  S
O92          C99   1.273       .  A
O93         C107   1.272       .  A
O94          C99   1.269       .  A
O95          C98   1.269       .  A
O96         C108   1.265       .  A
O97         C110   1.271       .  A
C98         O103   1.270   1_455  A
C98         C810   1.486   1_455  S
C99         C864   1.471       .  S
O101        C104   1.268       .  A
O102        C104   1.272       .  A
C104        C830   1.481       .  S
O105        C110   1.267       .  A
O106        C108   1.268       .  A
C107        O109   1.276       .  A
C107        C846   1.480       .  S
C108        C956   1.475       .  S
C110        C884   1.475       .  S
Fe111       O127   2.062       .  S
Fe111       O117   2.066       .  S
Fe111       O124   2.069       .  S
Fe111       O116   2.048       .  S
Fe111       O122   1.975       .  S
Fe112       O115   2.060       .  S
Fe112       O119   2.072       .  S
Fe112       O123   2.053       .  S
Fe112       O128   2.078       .  S
Fe112       O122   1.980       .  S
Fe113       O131   2.086       .  S
Fe113       O118   2.059       .  S
Fe113       O125   2.075   1_455  S
Fe113       O114   2.085       .  S
Fe113       O122   1.976       .  S
O114        C121   1.272       .  A
O115        C129   1.272       .  A
O116        C121   1.267       .  A
O117        C120   1.270   1_455  A
O118        C130   1.265       .  A
O119        C132   1.269       .  A
C120        O125   1.269       .  A
C120        C774   1.485       .  S
C121        C920   1.479       .  S
O123        C126   1.269       .  A
O124        C126   1.269       .  A
C126        C992   1.466       .  S
O127        C132   1.266       .  A
O128        C130   1.269       .  A
C129        O131   1.275       .  A
C129        C848   1.480       .  S
C130        C792   1.480       .  S
C132        C938   1.478       .  S
Fe133       O149   2.077       .  S
Fe133       O139   2.079       .  S
Fe133       O146   2.091       .  S
Fe133       O138   2.079       .  S
Fe133       O144   1.982       .  S
Fe134       O137   2.050       .  S
Fe134       O141   2.056       .  S
Fe134       O145   2.058       .  S
Fe134       O150   2.062       .  S
Fe134       O144   1.969       .  S
Fe135       O153   2.085       .  S
Fe135       O140   2.091       .  S
Fe135       O147   2.080       .  S
Fe135       O136   2.075   1_565  S
Fe135       O144   1.975       .  S
O136        C143   1.267       .  A
O137        C151   1.265       .  A
O138        C143   1.270   1_565  A
O139        C142   1.276       .  A
O140        C152   1.275       .  A
O141        C154   1.264       .  A
C142        O147   1.276       .  A
C142       C1206   1.483       .  S
C143        C738   1.492       .  S
O145        C148   1.269       .  A
O146        C148   1.276       .  A
C148       C1188   1.478       .  S
O149        C154   1.269       .  A
O150        C152   1.270       .  A
C151        O153   1.269       .  A
C151        C828   1.482       .  S
C152        C756   1.479       .  S
C154       C1098   1.480       .  S
Fe155       O171   2.065       .  S
Fe155       O161   2.064       .  S
Fe155       O168   2.059       .  S
Fe155       O160   2.054       .  S
Fe155       O166   1.967       .  S
Fe156       O159   2.050       .  S
Fe156       O163   2.073       .  S
Fe156       O167   2.065       .  S
Fe156       O172   2.075       .  S
Fe156       O166   1.971       .  S
Fe157       O175   2.075       .  S
Fe157       O162   2.083       .  S
Fe157       O169   2.076       .  S
Fe157       O158   2.079       .  S
Fe157       O166   1.976       .  S
O158        C165   1.268       .  A
O159        C173   1.265       .  A
O160        C165   1.263       .  A
O161        C164   1.273       .  A
O162        C174   1.274       .  A
O163        C176   1.268       .  A
C164        O169   1.274       .  A
C164        C882   1.477       .  S
C165        C722   1.477   1_565  S
O167        C170   1.271       .  A
O168        C170   1.267       .  A
C170        C866   1.471       .  S
O171        C176   1.268       .  A
O172        C174   1.273       .  A
C173        O175   1.267       .  A
C173       C1172   1.476       .  S
C174        C758   1.478       .  S
C176        C794   1.483       .  S
Fe177       O193   2.085       .  S
Fe177       O183   2.055       .  S
Fe177       O190   2.047       .  S
Fe177       O182   2.078       .  S
Fe177       O188   1.962       .  S
Fe178       O181   2.080       .  S
Fe178       O185   2.054       .  S
Fe178       O189   2.083       .  S
Fe178       O194   2.054       .  S
Fe178       O188   1.962       .  S
Fe179       O197   2.079       .  S
Fe179       O184   2.086       .  S
Fe179       O191   2.082       .  S
Fe179       O180   2.064       .  S
Fe179       O188   1.964       .  S
O180        C187   1.273       .  A
O181        C195   1.272       .  A
O182        C187   1.276       .  A
O183        C186   1.266       .  A
O184        C196   1.271       .  A
O185        C198   1.270       .  A
C186        O191   1.268       .  A
C186       C1028   1.484       .  S
C187        C684   1.475       .  S
O189        C192   1.270       .  A
O190        C192   1.263       .  A
C192        C668   1.477       .  S
O193        C198   1.276       .  A
O194        C196   1.268       .  A
C195        O197   1.272       .  A
C195        C648   1.477       .  S
C196        C630   1.478       .  S
C198        C702   1.471       .  S
Fe199       O215   2.068       .  S
Fe199       O205   2.052       .  S
Fe199       O212   2.068       .  S
Fe199       O204   2.072       .  S
Fe199       O210   1.969       .  S
Fe200       O203   2.066       .  S
Fe200       O207   2.060       .  S
Fe200       O211   2.067       .  S
Fe200       O216   2.046       .  S
Fe200       O210   1.971       .  S
Fe201       O219   2.089       .  S
Fe201       O206   2.086       .  S
Fe201       O213   2.089       .  S
Fe201       O202   2.065       .  S
Fe201       O210   1.978       .  S
O202        C209   1.271       .  A
O203        C217   1.271       .  A
O204        C209   1.274       .  A
O205        C208   1.264       .  A
O206        C218   1.270       .  A
O207        C220   1.270       .  A
C208        O213   1.271       .  A
C208        C776   1.478       .  S
C209        C578   1.476       .  S
O211        C214   1.267       .  A
O212        C214   1.268       .  A
C214        C596   1.479       .  S
O215        C220   1.269       .  A
O216        C218   1.266       .  A
C217        O219   1.274       .  A
C217        C650   1.481       .  S
C218        C612   1.477       .  S
C220        C558   1.474       .  S
Fe221       O237   2.048       .  S
Fe221       O227   2.078       .  S
Fe221       O234   2.085       .  S
Fe221       O226   2.049       .  S
Fe221       O232   1.955       .  S
Fe222       O225   2.047       .  S
Fe222       O229   2.096       .  S
Fe222       O233   2.042       .  S
Fe222       O238   2.084       .  S
Fe222       O232   1.954       .  S
Fe223       O241   2.089       .  S
Fe223       O228   2.073       .  S
Fe223       O235   2.059       .  S
Fe223       O224   2.109       .  S
Fe223       O232   1.963       .  S
O224        C231   1.276       .  A
O225        C239   1.264       .  A
O226        C231   1.266       .  A
O227        C230   1.272       .  A
O228        C240   1.274       .  A
O229        C242   1.275       .  A
C230        O235   1.268       .  A
C230        C560   1.474       .  S
C231        C902   1.480       .  S
O233        C236   1.263       .  A
O234        C236   1.271       .  A
C236        C576   1.469       .  S
O237        C242   1.266       .  A
O238        C240   1.276       .  A
C239        O241   1.273       .  A
C239        C524   1.476       .  S
C240        C542   1.484       .  S
C242        C632   1.475       .  S
Fe243       O259   2.093       .  S
Fe243       O249   2.033       .  S
Fe243       O256   2.054       .  S
Fe243       O248   2.072       .  S
Fe243       O254   1.952       .  S
Fe244       O247   2.080       .  S
Fe244       O251   2.049       .  S
Fe244       O255   2.082       .  S
Fe244       O260   2.049       .  S
Fe244       O254   1.950       .  S
Fe245       O263   2.061       .  S
Fe245       O250   2.106       .  S
Fe245       O257   2.102       .  S
Fe245       O246   2.072       .  S
Fe245       O254   1.963       .  S
O246        C253   1.270       .  A
O247        C261   1.271       .  A
O248        C253   1.271       .  A
O249        C252   1.268       .  A
O250        C262   1.278       .  A
O251        C264   1.267       .  A
C252        O257   1.276       .  A
C252        C486   1.481       .  S
C253        C720   1.485   1_655  S
O255        C258   1.272       .  A
O256        C258   1.265       .  A
C258        C468   1.474       .  S
O259        C264   1.274       .  A
O260        C262   1.270       .  A
C261        O263   1.267       .  A
C261        C594   1.479       .  S
C262        C540   1.480       .  S
C264        C504   1.477       .  S
Fe265       O281   2.045       .  S
Fe265       O271   2.049       .  S
Fe265       O278   2.073       .  S
Fe265       O270   2.042       .  S
Fe265       O276   1.974       .  S
Fe266       O269   2.064       .  S
Fe266       O273   2.064       .  S
Fe266       O277   2.071       .  S
Fe266       O282   2.057       .  S
Fe266       O276   1.974       .  S
Fe267       O285   2.088       .  S
Fe267       O272   2.070       .  S
Fe267       O279   2.086       .  S
Fe267       O268   2.072       .  S
Fe267       O276   1.989       .  S
O268        C275   1.271       .  A
O269        C283   1.272       .  A
O270        C275   1.269       .  A
O271        C274   1.263       .  A
O272        C284   1.267       .  A
O273        C286   1.270       .  A
C274        O279   1.271       .  A
C274       C1118   1.478       .  S
C275        C432   1.468       .  S
O277        C280   1.268       .  A
O278        C280   1.269       .  A
C280        C398   1.485       .  S
O281        C286   1.264       .  A
O282        C284   1.266       .  A
C283        O285   1.275       .  A
C283        C416   1.483       .  S
C284        C506   1.480       .  S
C286        C452   1.466       .  S
Fe287       O303   2.067       .  S
Fe287       O293   2.053       .  S
Fe287       O300   2.057       .  S
Fe287       O292   2.054       .  S
Fe287       O298   1.977       .  S
Fe288       O291   2.065       .  S
Fe288       O295   2.056       .  S
Fe288       O299   2.072       .  S
Fe288       O304   2.064       .  S
Fe288       O298   1.976       .  S
Fe289       O307   2.088       .  S
Fe289       O294   2.063       .  S
Fe289       O301   2.080       .  S
Fe289       O290   2.079       .  S
Fe289       O298   1.984       .  S
O290        C297   1.272       .  A
O291        C305   1.272       .  A
O292        C297   1.270       .  A
O293        C296   1.267       .  A
O294        C306   1.266       .  A
O295        C308   1.269       .  A
C296        O301   1.269       .  A
C296        C812   1.486   1_545  S
C297        C470   1.477       .  S
O299        C302   1.269       .  A
O300        C302   1.265       .  A
C302        C522   1.474       .  S
O303        C308   1.268       .  A
O304        C306   1.267       .  A
C305        O307   1.275       .  A
C305        C414   1.482       .  S
C306        C380   1.479       .  S
C308        C488   1.477       .  S
Fe309       O325   2.065       .  S
Fe309       O315   2.047       .  S
Fe309       O322   2.066       .  S
Fe309       O314   2.058       .  S
Fe309       O320   1.971       .  S
Fe310       O313   2.074       .  S
Fe310       O317   2.066       .  S
Fe310       O321   2.068       .  S
Fe310       O326   2.062       .  S
Fe310       O320   1.976       .  S
Fe311       O329   2.069       .  S
Fe311       O316   2.093       .  S
Fe311       O323   2.092       .  S
Fe311       O312   2.085       .  S
Fe311       O320   1.975       .  S
O312        C319   1.269       .  A
O313        C327   1.269       .  A
O314        C319   1.266       .  A
O315        C318   1.270       .  A
O316        C328   1.276       .  A
O317        C330   1.268       .  A
C318        O323   1.275       .  A
C318        C704   1.480       .  S
C319        C972   1.486       .  S
O321        C324   1.271       .  A
O322        C324   1.269       .  A
C324        C686   1.476       .  S
O325        C330   1.266       .  A
O326        C328   1.271       .  A
C327        O329   1.268       .  A
C327        C396   1.483       .  S
C328        C362   1.486       .  S
C330        C614   1.474       .  S
Fe331       O347   2.075       .  S
Fe331       O337   2.031       .  S
Fe331       O344   2.052       .  S
Fe331       O336   2.061       .  S
Fe331       O342   1.959       .  S
Fe332       O335   2.060       .  S
Fe332       O339   2.066       .  S
Fe332       O343   2.071       .  S
Fe332       O348   2.062       .  S
Fe332       O342   1.953       .  S
Fe333       O351   2.072       .  S
Fe333       O338   2.100       .  S
Fe333       O345   2.095       .  S
Fe333       O334   2.091       .  S
Fe333       O342   1.964       .  S
O334        C341   1.270       .  A
O335        C349   1.265       .  A
O336        C341   1.265       .  A
O337        C340   1.268       .  A
O338        C350   1.279       .  A
O339        C352   1.266       .  A
C340        O345   1.280       .  A
C340        C450   1.462       .  S
C341        C740   1.494       .  S
O343        C346   1.274       .  A
O344        C346   1.268       .  A
C346        C434   1.465       .  S
O347        C352   1.266       .  A
O348        C350   1.274       .  A
C349        O351   1.268       .  A
C349        C666   1.478       .  S
C350        C360   1.484       .  S
C352        C378   1.476       .  S
C353        C361   1.490       .  S
C353        C354   1.405   1_556  A
C353        C358   1.407       .  A
C354        C355   1.402       .  A
C354        H363   1.083       .  S
C355        C356   1.406       .  A
C355        H364   1.083       .  S
C356        C359   1.488       .  S
C356        C357   1.405       .  A
C357        C358   1.402   1_554  A
C357        H365   1.083   1_554  S
C358        H366   1.082       .  S
C359        H367   1.087       .  S
C359        C360   1.349       .  D
C360        H368   1.086       .  S
C361        H369   1.087       .  S
C361        C362   1.350       .  D
C362        H370   1.086       .  S
C371        C379   1.490       .  S
C371        C372   1.404       .  A
C371        C376   1.409       .  A
C372        C373   1.399       .  A
C372        H381   1.083       .  S
C373        C374   1.402       .  A
C373        H382   1.083       .  S
C374        C377   1.488       .  S
C374        C375   1.408       .  A
C375        C376   1.399       .  A
C375        H383   1.082       .  S
C376        H384   1.080       .  S
C377        H385   1.087       .  S
C377        C378   1.345       .  D
C378        H386   1.085       .  S
C379        H387   1.087       .  S
C379        C380   1.347       .  D
C380        H388   1.084       .  S
C389        C397   1.491       .  S
C389        C390   1.404       .  A
C389        C394   1.407       .  A
C390        C391   1.398       .  A
C390        H399   1.083       .  S
C391        C392   1.408       .  A
C391        H400   1.081       .  S
C392        C395   1.495       .  S
C392        C393   1.407       .  A
C393        C394   1.404       .  A
C393        H401   1.083       .  S
C394        H402   1.082       .  S
C395        H403   1.087       .  S
C395        C396   1.350       .  D
C396        H404   1.084       .  S
C397        H405   1.087       .  S
C397        C398   1.349       .  D
C398        H406   1.085       .  S
C407        C415   1.486       .  S
C407        C408   1.404       .  A
C407        C412   1.407       .  A
C408        C409   1.401       .  A
C408        H417   1.083       .  S
C409        C410   1.406       .  A
C409        H418   1.083       .  S
C410        C413   1.487       .  S
C410        C411   1.404       .  A
C411        C412   1.402       .  A
C411        H419   1.083       .  S
C412        H420   1.083       .  S
C413        H421   1.087       .  S
C413        C414   1.347       .  D
C414        H422   1.086       .  S
C415        H423   1.087       .  S
C415        C416   1.347       .  D
C416        H424   1.086       .  S
C425        C433   1.469       .  S
C425        C426   1.401   1_554  A
C425        C430   1.403   1_554  A
C426        C427   1.392       .  A
C426        H435   1.084   1_556  S
C427        C428   1.405       .  A
C427        H436   1.081       .  S
C428        C431   1.474       .  S
C428        C429   1.403       .  A
C429        C430   1.394       .  A
C429        H437   1.084       .  S
C430        H438   1.082       .  S
C431        H439   1.088       .  S
C431        C432   1.344       .  D
C432        H440   1.085       .  S
C433        H441   1.088       .  S
C433        C434   1.342       .  D
C434        H442   1.086       .  S
C443        C451   1.474       .  S
C443        C444   1.399       .  A
C443        C448   1.409       .  A
C444        C445   1.391       .  A
C444        H453   1.084       .  S
C445        C446   1.405       .  A
C445        H454   1.083       .  S
C446        C449   1.472       .  S
C446        C447   1.398       .  A
C447        C448   1.397       .  A
C447        H455   1.083       .  S
C448        H456   1.082       .  S
C449        H457   1.086       .  S
C449        C450   1.338       .  D
C450        H458   1.088       .  S
C451        H459   1.087       .  S
C451        C452   1.341       .  D
C452        H460   1.085       .  S
C461        C469   1.482       .  S
C461        C462   1.404       .  A
C461        C466   1.406       .  A
C462        C463   1.399       .  A
C462        H471   1.083       .  S
C463        C464   1.406       .  A
C463        H472   1.082       .  S
C464        C467   1.482   1_554  S
C464        C465   1.403       .  A
C465        C466   1.397       .  A
C465        H473   1.083       .  S
C466        H474   1.082       .  S
C467        H475   1.087       .  S
C467        C468   1.345       .  D
C468        H476   1.086       .  S
C469        H477   1.087       .  S
C469        C470   1.347       .  D
C470        H478   1.086       .  S
C479        C487   1.478       .  S
C479        C480   1.400       .  A
C479        C484   1.408       .  A
C480        C481   1.391       .  A
C480        H489   1.084       .  S
C481        C482   1.401       .  A
C481        H490   1.084       .  S
C482        C485   1.477       .  S
C482        C483   1.406       .  A
C483        C484   1.403       .  A
C483        H491   1.082       .  S
C484        H492   1.082       .  S
C485        H493   1.087       .  S
C485        C486   1.348       .  D
C486        H494   1.086       .  S
C487        H495   1.087       .  S
C487        C488   1.345       .  D
C488        H496   1.086       .  S
C497        C505   1.488       .  S
C497        C498   1.403       .  A
C497        C502   1.408       .  A
C498        C499   1.396       .  A
C498        H507   1.084       .  S
C499        C500   1.408       .  A
C499        H508   1.081       .  S
C500        C503   1.489       .  S
C500        C501   1.404       .  A
C501        C502   1.401       .  A
C501        H509   1.083       .  S
C502        H510   1.081       .  S
C503        H511   1.087       .  S
C503        C504   1.346       .  D
C504        H512   1.085       .  S
C505        H513   1.087       .  S
C505        C506   1.348       .  D
C506        H514   1.084       .  S
C515        C523   1.488       .  S
C515        C516   1.402       .  A
C515        C520   1.410       .  A
C516        C517   1.397       .  A
C516        H525   1.083       .  S
C517        C518   1.409       .  A
C517        H526   1.081       .  S
C518        C521   1.488       .  S
C518        C519   1.402       .  A
C519        C520   1.400       .  A
C519        H527   1.083       .  S
C520        H528   1.081       .  S
C521        H529   1.087       .  S
C521        C522   1.345       .  D
C522        H530   1.085       .  S
C523        H531   1.087       .  S
C523        C524   1.344       .  D
C524        H532   1.085       .  S
C533        C541   1.489       .  S
C533        C534   1.404   1_554  A
C533        C538   1.407       .  A
C534        C535   1.399       .  A
C534        H543   1.083       .  S
C535        C536   1.406       .  A
C535        H544   1.083       .  S
C536        C539   1.485       .  S
C536        C537   1.404   1_556  A
C537        C538   1.402       .  A
C537        H545   1.083       .  S
C538        H546   1.082       .  S
C539        H547   1.087       .  S
C539        C540   1.348       .  D
C540        H548   1.086       .  S
C541        H549   1.087       .  S
C541        C542   1.348       .  D
C542        H550   1.086       .  S
C551        C559   1.479       .  S
C551        C552   1.402       .  A
C551        C556   1.405       .  A
C552        C553   1.399       .  A
C552        H561   1.083       .  S
C553        C554   1.407       .  A
C553        H562   1.082       .  S
C554        C557   1.480       .  S
C554        C555   1.402       .  A
C555        C556   1.396       .  A
C555        H563   1.083       .  S
C556        H564   1.083       .  S
C557        H565   1.087       .  S
C557        C558   1.344       .  D
C558        H566   1.086       .  S
C559        H567   1.087       .  S
C559        C560   1.345       .  D
C560        H568   1.087       .  S
C569        C577   1.484       .  S
C569        C570   1.402       .  A
C569        C574   1.409       .  A
C570        C571   1.394       .  A
C570        H579   1.084       .  S
C571        C572   1.405   1_556  A
C571        H580   1.083       .  S
C572        C575   1.481       .  S
C572        C573   1.402   1_554  A
C573        C574   1.400       .  A
C573        H581   1.083   1_556  S
C574        H582   1.081       .  S
C575        H583   1.087       .  S
C575        C576   1.343       .  D
C576        H584   1.087       .  S
C577        H585   1.087       .  S
C577        C578   1.346       .  D
C578        H586   1.084       .  S
C587        C595   1.488       .  S
C587        C588   1.403       .  A
C587        C592   1.408       .  A
C588        C589   1.399       .  A
C588        H597   1.083       .  S
C589        C590   1.407       .  A
C589        H598   1.082       .  S
C590        C593   1.486       .  S
C590        C591   1.403       .  A
C591        C592   1.401       .  A
C591        H599   1.083       .  S
C592        H600   1.082       .  S
C593        H601   1.087       .  S
C593        C594   1.347       .  D
C594        H602   1.086       .  S
C595        H603   1.087       .  S
C595        C596   1.346       .  D
C596        H604   1.086       .  S
C605        C613   1.483       .  S
C605        C606   1.404       .  A
C605        C610   1.406       .  A
C606        C607   1.402       .  A
C606        H615   1.083       .  S
C607        C608   1.405       .  A
C607        H616   1.083       .  S
C608        C611   1.477       .  S
C608        C609   1.401       .  A
C609        C610   1.395       .  A
C609        H617   1.084       .  S
C610        H618   1.083       .  S
C611        H619   1.087       .  S
C611        C612   1.344       .  D
C612        H620   1.087       .  S
C613        H621   1.087       .  S
C613        C614   1.344       .  D
C614        H622   1.087       .  S
C623        C631   1.483       .  S
C623        C624   1.402       .  A
C623        C628   1.406       .  A
C624        C625   1.401       .  A
C624        H633   1.083       .  S
C625        C626   1.408       .  A
C625        H634   1.082       .  S
C626        C629   1.484       .  S
C626        C627   1.402       .  A
C627        C628   1.398       .  A
C627        H635   1.083       .  S
C628        H636   1.083       .  S
C629        H637   1.087       .  S
C629        C630   1.346       .  D
C630        H638   1.086       .  S
C631        H639   1.086       .  S
C631        C632   1.343       .  D
C632        H640   1.087       .  S
C641        C649   1.486       .  S
C641        C642   1.405       .  A
C641        C646   1.406       .  A
C642        C643   1.400       .  A
C642        H651   1.083       .  S
C643        C644   1.404       .  A
C643        H652   1.083       .  S
C644        C647   1.483       .  S
C644        C645   1.405       .  A
C645        C646   1.403       .  A
C645        H653   1.083       .  S
C646        H654   1.083       .  S
C647        H655   1.087       .  S
C647        C648   1.345       .  D
C648        H656   1.086       .  S
C649        H657   1.088       .  S
C649        C650   1.349       .  D
C650        H658   1.086       .  S
C659        C667   1.486       .  S
C659        C660   1.402       .  A
C659        C664   1.408       .  A
C660        C661   1.401       .  A
C660        H669   1.083       .  S
C661        C662   1.408       .  A
C661        H670   1.082       .  S
C662        C665   1.486       .  S
C662        C663   1.402       .  A
C663        C664   1.398       .  A
C663        H671   1.083       .  S
C664        H672   1.083       .  S
C665        H673   1.087       .  S
C665        C666   1.345       .  D
C666        H674   1.086       .  S
C667        H675   1.086       .  S
C667        C668   1.344       .  D
C668        H676   1.087       .  S
C677        C685   1.481   1_554  S
C677        C678   1.403       .  A
C677        C682   1.406       .  A
C678        C679   1.396       .  A
C678        H687   1.084       .  S
C679        C680   1.406       .  A
C679        H688   1.082       .  S
C680        C683   1.482       .  S
C680        C681   1.403       .  A
C681        C682   1.399       .  A
C681        H689   1.083       .  S
C682        H690   1.082       .  S
C683        H691   1.087       .  S
C683        C684   1.346       .  D
C684        H692   1.086       .  S
C685        H693   1.087       .  S
C685        C686   1.346       .  D
C686        H694   1.085       .  S
C695        C703   1.486       .  S
C695        C696   1.404       .  A
C695        C700   1.409       .  A
C696        C697   1.394       .  A
C696        H705   1.084       .  S
C697        C698   1.404       .  A
C697        H706   1.083       .  S
C698        C701   1.483       .  S
C698        C699   1.403       .  A
C699        C700   1.401       .  A
C699        H707   1.083       .  S
C700        H708   1.080       .  S
C701        H709   1.087       .  S
C701        C702   1.344       .  D
C702        H710   1.086       .  S
C703        H711   1.087       .  S
C703        C704   1.349       .  D
C704        H712   1.083       .  S
C713        C721   1.492       .  S
C713        C714   1.406       .  A
C713        C718   1.407       .  A
C714        C715   1.405       .  A
C714        H723   1.083       .  S
C715        C716   1.410       .  A
C715        H724   1.080       .  S
C716        C719   1.491       .  S
C716        C717   1.403       .  A
C717        C718   1.394       .  A
C717        H725   1.084       .  S
C718        H726   1.081       .  S
C719        H727   1.087   1_455  S
C719        C720   1.350       .  D
C720        H728   1.084       .  S
C721        H729   1.087       .  S
C721        C722   1.348       .  D
C722        H730   1.085       .  S
C731        C739   1.498       .  S
C731        C732   1.409       .  A
C731        C736   1.405       .  A
C732        C733   1.411       .  A
C732        H741   1.081       .  S
C733        C734   1.414       .  A
C733        H742   1.080       .  S
C734        C737   1.502       .  S
C734        C735   1.403       .  A
C735        C736   1.398       .  A
C735        H743   1.083       .  S
C736        H744   1.084       .  S
C737        H745   1.087       .  S
C737        C738   1.350       .  D
C738        H746   1.084       .  S
C739        H747   1.087       .  S
C739        C740   1.356       .  D
C740        H748   1.085       .  S
C749        C757   1.485       .  S
C749        C750   1.405       .  A
C749        C754   1.405       .  A
C750        C751   1.401       .  A
C750        H759   1.083       .  S
C751        C752   1.406       .  A
C751        H760   1.083       .  S
C752        C755   1.485       .  S
C752        C753   1.405       .  A
C753        C754   1.401       .  A
C753        H761   1.083       .  S
C754        H762   1.083       .  S
C755        H763   1.088       .  S
C755        C756   1.348       .  D
C756        H764   1.086   1_565  S
C757        H765   1.088       .  S
C757        C758   1.346       .  D
C758        H766   1.086   1_565  S
C767        C775   1.493       .  S
C767        C768   1.406       .  A
C767        C772   1.407       .  A
C768        C769   1.406       .  A
C768        H777   1.083       .  S
C769        C770   1.410       .  A
C769        H778   1.081       .  S
C770        C773   1.492       .  S
C770        C771   1.403       .  A
C771        C772   1.396       .  A
C771        H779   1.084       .  S
C772        H780   1.082       .  S
C773        H781   1.087       .  S
C773        C774   1.349       .  D
C774        H782   1.084       .  S
C775        H783   1.087       .  S
C775        C776   1.349       .  D
C776        H784   1.086       .  S
C785        C793   1.488       .  S
C785        C786   1.403       .  A
C785        C790   1.409       .  A
C786        C787   1.396       .  A
C786        H795   1.083       .  S
C787        C788   1.406       .  A
C787        H796   1.082       .  S
C788        C791   1.489       .  S
C788        C789   1.405       .  A
C789        C790   1.404       .  A
C789        H797   1.083       .  S
C790        H798   1.082       .  S
C791        H799   1.086       .  S
C791        C792   1.347       .  D
C792        H800   1.086       .  S
C793        H801   1.087       .  S
C793        C794   1.347       .  D
C794        H802   1.085       .  S
C803        C811   1.489       .  S
C803        C804   1.411       .  A
C803        C808   1.402       .  A
C804        C805   1.408       .  A
C804        H813   1.081       .  S
C805        C806   1.408       .  A
C805        H814   1.082       .  S
C806        C809   1.487       .  S
C806        C807   1.402       .  A
C807        C808   1.391       .  A
C807        H815   1.084       .  S
C808        H816   1.084       .  S
C809        H817   1.087       .  S
C809        C810   1.349       .  D
C810        H818   1.085       .  S
C811        H819   1.087   1_565  S
C811        C812   1.349       .  D
C812        H820   1.085       .  S
C821        C829   1.492       .  S
C821        C822   1.405       .  A
C821        C826   1.408       .  A
C822        C823   1.400       .  A
C822        H831   1.083       .  S
C823        C824   1.407       .  A
C823        H832   1.081       .  S
C824        C827   1.488       .  S
C824        C825   1.404       .  A
C825        C826   1.399       .  A
C825        H833   1.083       .  S
C826        H834   1.080       .  S
C827        H835   1.087       .  S
C827        C828   1.349       .  D
C828        H836   1.085       .  S
C829        H837   1.087       .  S
C829        C830   1.349       .  D
C830        H838   1.083       .  S
C839        C847   1.486       .  S
C839        C840   1.404   1_556  A
C839        C844   1.407       .  A
C840        C841   1.400       .  A
C840        H849   1.083       .  S
C841        C842   1.407       .  A
C841        H850   1.082       .  S
C842        C845   1.485       .  S
C842        C843   1.403       .  A
C843        C844   1.399   1_554  A
C843        H851   1.083   1_554  S
C844        H852   1.082       .  S
C845        H853   1.087       .  S
C845        C846   1.347       .  D
C846        H854   1.086   1_455  S
C847        H855   1.087       .  S
C847        C848   1.347       .  D
C848        H856   1.086   1_455  S
C857        C865   1.478       .  S
C857        C858   1.402       .  A
C857        C862   1.406       .  A
C858        C859   1.397       .  A
C858        H867   1.083       .  S
C859        C860   1.404       .  A
C859        H868   1.083       .  S
C860        C863   1.473       .  S
C860        C861   1.401       .  A
C861        C862   1.396       .  A
C861        H869   1.083       .  S
C862        H870   1.083       .  S
C863        H871   1.087       .  S
C863        C864   1.343       .  D
C864        H872   1.087       .  S
C865        H873   1.087       .  S
C865        C866   1.342       .  D
C866        H874   1.087       .  S
C875        C883   1.481       .  S
C875        C876   1.403   1_554  A
C875        C880   1.405   1_554  A
C876        C877   1.396       .  A
C876        H885   1.084   1_556  S
C877        C878   1.405       .  A
C877        H886   1.082       .  S
C878        C881   1.482       .  S
C878        C879   1.404       .  A
C879        C880   1.399       .  A
C879        H887   1.083       .  S
C880        H888   1.082       .  S
C881        H889   1.087       .  S
C881        C882   1.348       .  D
C882        H890   1.086       .  S
C883        H891   1.088       .  S
C883        C884   1.346       .  D
C884        H892   1.086       .  S
C893        C901   1.497       .  S
C893        C894   1.408       .  A
C893        C898   1.408       .  A
C894        C895   1.408       .  A
C894        H903   1.083       .  S
C895        C896   1.408       .  A
C895        H904   1.081       .  S
C896        C899   1.492       .  S
C896        C897   1.403       .  A
C897        C898   1.395       .  A
C897        H905   1.084       .  S
C898        H906   1.081   1_455  S
C899        H907   1.088       .  S
C899        C900   1.350       .  D
C900        H908   1.085       .  S
C901        H909   1.087   1_455  S
C901        C902   1.350   1_455  D
C902        H910   1.085       .  S
C911        C919   1.483       .  S
C911        C912   1.405       .  A
C911        C916   1.405       .  A
C912        C913   1.400       .  A
C912        H921   1.083       .  S
C913        C914   1.406       .  A
C913        H922   1.082       .  S
C914        C917   1.484       .  S
C914        C915   1.404       .  A
C915        C916   1.398       .  A
C915        H923   1.083       .  S
C916        H924   1.082       .  S
C917        H925   1.087       .  S
C917        C918   1.347       .  D
C918        H926   1.086       .  S
C919        H927   1.087       .  S
C919        C920   1.349       .  D
C920        H928   1.086       .  S
C929        C937   1.487   1_554  S
C929        C930   1.405       .  A
C929        C934   1.407       .  A
C930        C931   1.399       .  A
C930        H939   1.083       .  S
C931        C932   1.406       .  A
C931        H940   1.082       .  S
C932        C935   1.484       .  S
C932        C933   1.403       .  A
C933        C934   1.398       .  A
C933        H941   1.083       .  S
C934        H942   1.081       .  S
C935        H943   1.087       .  S
C935        C936   1.348       .  D
C936        H944   1.086       .  S
C937        H945   1.087       .  S
C937        C938   1.348       .  D
C938        H946   1.085       .  S
C947        C955   1.482       .  S
C947        C948   1.403       .  A
C947        C952   1.406       .  A
C948        C949   1.397       .  A
C948        H957   1.083       .  S
C949        C950   1.406       .  A
C949        H958   1.082       .  S
C950        C953   1.482       .  S
C950        C951   1.402       .  A
C951        C952   1.398       .  A
C951        H959   1.083       .  S
C952        H960   1.082       .  S
C953        H961   1.087       .  S
C953        C954   1.344       .  D
C954        H962   1.086       .  S
C955        H963   1.087       .  S
C955        C956   1.345       .  D
C956        H964   1.086       .  S
C965        C973   1.501       .  S
C965        C966   1.410       .  A
C965        C970   1.409       .  A
C966        C967   1.406       .  A
C966        H975   1.083       .  S
C967        C968   1.405       .  A
C967        H976   1.082       .  S
C968        C971   1.489       .  S
C968        C969   1.403       .  A
C969        C970   1.397       .  A
C969        H977   1.084       .  S
C970        H978   1.079       .  S
C971        H979   1.088       .  S
C971        C972   1.352       .  D
C972        H980   1.085       .  S
C973        H981   1.087       .  S
C973        C974   1.352       .  D
C974        H982   1.082       .  S
C983        C991   1.473       .  S
C983        C984   1.403       .  A
C983        C988   1.402       .  A
C984        C985   1.400       .  A
C984        H993   1.083       .  S
C985        C986   1.405       .  A
C985        H994   1.083       .  S
C986        C989   1.473       .  S
C986        C987   1.402       .  A
C987        C988   1.392       .  A
C987        H995   1.084       .  S
C988        H996   1.083       .  S
C989        H997   1.087       .  S
C989        C990   1.346       .  D
C990        H998   1.086       .  S
C991        H999   1.087       .  S
C991        C992   1.341       .  D
C992       H1000   1.087       .  S
C1001      C1009   1.485       .  S
C1001      C1002   1.403       .  A
C1001      C1006   1.406       .  A
C1002      C1003   1.399       .  A
C1002      H1011   1.084       .  S
C1003      C1004   1.407       .  A
C1003      H1012   1.082       .  S
C1004      C1007   1.489       .  S
C1004      C1005   1.406       .  A
C1005      C1006   1.404       .  A
C1005      H1013   1.083       .  S
C1006      H1014   1.083       .  S
C1007      H1015   1.087       .  S
C1007      C1008   1.346       .  D
C1008      H1016   1.085       .  S
C1009      H1017   1.088       .  S
C1009      C1010   1.348       .  D
C1010      H1018   1.086       .  S
C1019      C1027   1.487       .  S
C1019      C1020   1.402       .  A
C1019      C1024   1.407       .  A
C1020      C1021   1.395       .  A
C1020      H1029   1.084       .  S
C1021      C1022   1.403       .  A
C1021      H1030   1.084       .  S
C1022      C1025   1.492       .  S
C1022      C1023   1.412       .  A
C1023      C1024   1.407       .  A
C1023      H1031   1.081       .  S
C1024      H1032   1.082       .  S
C1025      H1033   1.087       .  S
C1025      C1026   1.348       .  D
C1026      H1034   1.084       .  S
C1027      H1035   1.088       .  S
C1027      C1028   1.349       .  D
C1028      H1036   1.086       .  S
C1037      C1045   1.486       .  S
C1037      C1038   1.403       .  A
C1037      C1042   1.409       .  A
C1038      C1039   1.397       .  A
C1038      H1047   1.083       .  S
C1039      C1040   1.406   1_556  A
C1039      H1048   1.083       .  S
C1040      C1043   1.484       .  S
C1040      C1041   1.402   1_554  A
C1041      C1042   1.400       .  A
C1041      H1049   1.083   1_556  S
C1042      H1050   1.082       .  S
C1043      H1051   1.087       .  S
C1043      C1044   1.343       .  D
C1044      H1052   1.087       .  S
C1045      H1053   1.087       .  S
C1045      C1046   1.347       .  D
C1046      H1054   1.085       .  S
C1055      C1063   1.483       .  S
C1055      C1056   1.402       .  A
C1055      C1060   1.407       .  A
C1056      C1057   1.399       .  A
C1056      H1065   1.083       .  S
C1057      C1058   1.409       .  A
C1057      H1066   1.081       .  S
C1058      C1061   1.484       .  S
C1058      C1059   1.402       .  A
C1059      C1060   1.395       .  A
C1059      H1067   1.084       .  S
C1060      H1068   1.082       .  S
C1061      H1069   1.087       .  S
C1061      C1062   1.346       .  D
C1062      H1070   1.085       .  S
C1063      H1071   1.087       .  S
C1063      C1064   1.343       .  D
C1064      H1072   1.086       .  S
C1073      C1081   1.491       .  S
C1073      C1074   1.404       .  A
C1073      C1078   1.409       .  A
C1074      C1075   1.398       .  A
C1074      H1083   1.083       .  S
C1075      C1076   1.408       .  A
C1075      H1084   1.081       .  S
C1076      C1079   1.492       .  S
C1076      C1077   1.404       .  A
C1077      C1078   1.401       .  A
C1077      H1085   1.083       .  S
C1078      H1086   1.081       .  S
C1079      H1087   1.087       .  S
C1079      C1080   1.348       .  D
C1080      H1088   1.084       .  S
C1081      H1089   1.087       .  S
C1081      C1082   1.349       .  D
C1082      H1090   1.084       .  S
C1091      C1099   1.491       .  S
C1091      C1092   1.404       .  A
C1091      C1096   1.409       .  A
C1092      C1093   1.401       .  A
C1092      H1101   1.083       .  S
C1093      C1094   1.408       .  A
C1093      H1102   1.082       .  S
C1094      C1097   1.489       .  S
C1094      C1095   1.403       .  A
C1095      C1096   1.400       .  A
C1095      H1103   1.083       .  S
C1096      H1104   1.081       .  S
C1097      H1105   1.087       .  S
C1097      C1098   1.345       .  D
C1098      H1106   1.086       .  S
C1099      H1107   1.087       .  S
C1099      C1100   1.348       .  D
C1100      H1108   1.085       .  S
C1109      C1117   1.499       .  S
C1109      C1110   1.408       .  A
C1109      C1114   1.410       .  A
C1110      C1111   1.404       .  A
C1110      H1119   1.083       .  S
C1111      C1112   1.406       .  A
C1111      H1120   1.082       .  S
C1112      C1115   1.488       .  S
C1112      C1113   1.402       .  A
C1113      C1114   1.398       .  A
C1113      H1121   1.084       .  S
C1114      H1122   1.079       .  S
C1115      H1123   1.087       .  S
C1115      C1116   1.348       .  D
C1116      H1124   1.086       .  S
C1117      H1125   1.087       .  S
C1117      C1118   1.349   1_565  D
C1118      H1126   1.082       .  S
C1127      C1135   1.486       .  S
C1127      C1128   1.403       .  A
C1127      C1132   1.407       .  A
C1128      C1129   1.399       .  A
C1128      H1137   1.083       .  S
C1129      C1130   1.407       .  A
C1129      H1138   1.082       .  S
C1130      C1133   1.487       .  S
C1130      C1131   1.404       .  A
C1131      C1132   1.400       .  A
C1131      H1139   1.083       .  S
C1132      H1140   1.082       .  S
C1133      H1141   1.087       .  S
C1133      C1134   1.347       .  D
C1134      H1142   1.086       .  S
C1135      H1143   1.087       .  S
C1135      C1136   1.346       .  D
C1136      H1144   1.086       .  S
C1145      C1153   1.484       .  S
C1145      C1146   1.403       .  A
C1145      C1150   1.407       .  A
C1146      C1147   1.398   1_554  A
C1146      H1155   1.083   1_554  S
C1147      C1148   1.407       .  A
C1147      H1156   1.083       .  S
C1148      C1151   1.483       .  S
C1148      C1149   1.403   1_556  A
C1149      C1150   1.400       .  A
C1149      H1157   1.083       .  S
C1150      H1158   1.082       .  S
C1151      H1159   1.087       .  S
C1151      C1152   1.346       .  D
C1152      H1160   1.086       .  S
C1153      H1161   1.087       .  S
C1153      C1154   1.346       .  D
C1154      H1162   1.086       .  S
C1163      C1171   1.484       .  S
C1163      C1164   1.402       .  A
C1163      C1168   1.407       .  A
C1164      C1165   1.397       .  A
C1164      H1173   1.084       .  S
C1165      C1166   1.409       .  A
C1165      H1174   1.079       .  S
C1166      C1169   1.489       .  S
C1166      C1167   1.404       .  A
C1167      C1168   1.397       .  A
C1167      H1175   1.083       .  S
C1168      H1176   1.081       .  S
C1169      H1177   1.087       .  S
C1169      C1170   1.346       .  D
C1170      H1178   1.083       .  S
C1171      H1179   1.087       .  S
C1171      C1172   1.346       .  D
C1172      H1180   1.085       .  S
C1181      C1189   1.493       .  S
C1181      C1182   1.405       .  A
C1181      C1186   1.409       .  A
C1182      C1183   1.397       .  A
C1182      H1191   1.084       .  S
C1183      C1184   1.407       .  A
C1183      H1192   1.082       .  S
C1184      C1187   1.492       .  S
C1184      C1185   1.405       .  A
C1185      C1186   1.404       .  A
C1185      H1193   1.083       .  S
C1186      H1194   1.080       .  S
C1187      H1195   1.087       .  S
C1187      C1188   1.346       .  D
C1188      H1196   1.086       .  S
C1189      H1197   1.087       .  S
C1189      C1190   1.351       .  D
C1190      H1198   1.083       .  S
C1199      C1207   1.489   1_554  S
C1199      C1200   1.404       .  A
C1199      C1204   1.407       .  A
C1200      C1201   1.400       .  A
C1200      H1209   1.083       .  S
C1201      C1202   1.406       .  A
C1201      H1210   1.082       .  S
C1202      C1205   1.489       .  S
C1202      C1203   1.405       .  A
C1203      C1204   1.402       .  A
C1203      H1211   1.083       .  S
C1204      H1212   1.082       .  S
C1205      H1213   1.087       .  S
C1205      C1206   1.349       .  D
C1206      H1214   1.086       .  S
C1207      H1215   1.087       .  S
C1207      C1208   1.348       .  D
C1208      H1216   1.086       .  S
