geometry optimzed in LAMMPS
_audit_creation_date              2020-12-01 
_audit_creation_method            'lammps2cif' 
_symmetry_space_group_name_H-M    'P1' 
_symmetry_Int_Tables_number       1 
_symmetry_cell_setting            triclinic 
loop_ 
_symmetry_equiv_pos_as_xyz 
  x,y,z 
_cell_length_a                    38.72888484 
_cell_length_b                    38.451442243462225 
_cell_length_c                    35.8908601703783 
_cell_angle_alpha                 89.9417836681492 
_cell_angle_beta                  89.55603916201007 
_cell_angle_gamma                 89.79782023779006 
loop_ 
_atom_site_label 
_atom_site_type_symbol 
_atom_site_fract_x 
_atom_site_fract_y 
_atom_site_fract_z 
_atom_site_charge 
Fe1        Fe  0.45720263  0.02457302  0.24527751     1.65800
Fe2        Fe  0.49421628  0.43698093  0.23553917     1.73200
Fe3        Fe  0.43050264  0.45141657  0.29761292     1.54400
O4          O  0.42895234  0.49609849  0.32886606    -0.80400
O5          O  0.45573880  0.40585010  0.21761474    -0.78700
O6          O  0.44659727  0.04530982  0.29958065    -0.82900
O7          O  0.40462768  0.02098061  0.23368263    -0.77700
O8          O  0.47306497  0.43417390  0.32547002    -0.79500
O9          O  0.49197265  0.46076590  0.18339421    -0.82200
C10         C  0.37957473  0.01089483  0.25390337     0.98500
C11         C  0.44042192  0.03279134  0.33229820     1.06000
O12         O  0.46067730  0.46916414  0.25924766    -1.11200
O13         O  0.02995604  0.47952278  0.23722845    -0.73700
O14         O  0.51086798  0.03237510  0.25302325    -0.77100
O15         O  0.38768347  0.46701496  0.26927898    -0.77800
C16         C  0.03619803  0.01277894  0.24185122     0.97400
O17         O  0.46437513  0.00702179  0.18961959    -0.75800
O18         O  0.49908269  0.40332444  0.28190448    -0.81000
C19         C  0.43305228  0.39310925  0.23896187     1.00100
C20         C  0.48618177  0.40572422  0.31444525     1.06000
O21         O  0.42634232  0.40474882  0.27124402    -0.76600
C22         C  0.46749703  0.97688080  0.17458684     1.04300
Fe23       Fe  0.20289286  0.02141617  0.24143105     1.65800
Fe24       Fe  0.24173586  0.43694307  0.23467964     1.73200
Fe25       Fe  0.18112813  0.45501090  0.17156599     1.54400
O26         O  0.14076998  0.48883226  0.18197369    -0.80400
O27         O  0.26272657  0.42516194  0.18365881    -0.78700
O28         O  0.14877975  0.01875225  0.24045986    -0.82900
O29         O  0.20312749  0.04308659  0.18679932    -0.77700
O30         O  0.15921834  0.41998640  0.20671667    -0.79500
O31         O  0.27943248  0.47297299  0.24136778    -0.82200
C32         C  0.20639746  0.03107322  0.15353415     0.98500
C33         C  0.13041346  0.01119785  0.21247432     1.06000
O34         O  0.20967751  0.47036735  0.21278411    -1.11200
O35         O  0.22249935  0.44496277  0.28701934    -0.73700
O36         O  0.19860411  0.00366215  0.29674925    -0.77100
O37         O  0.20190048  0.49192504  0.13715444    -0.77800
C38         C  0.20110754  0.97425483  0.31316285     0.97400
O39         O  0.25692965  0.02801641  0.24595057    -0.75800
O40         O  0.20711143  0.39681131  0.23101619    -0.81000
C41         C  0.24482591  0.40620239  0.16267465     1.00100
C42         C  0.17486170  0.39686282  0.22553340     1.06000
O43         O  0.21440410  0.41517268  0.15404397    -0.76600
C44         C  0.28135524  0.00673934  0.25381452     1.04300
Fe45       Fe  0.35701411  0.30817244  0.48762687     1.65800
Fe46       Fe  0.43342856  0.35089809  0.49839106     1.73200
Fe47       Fe  0.42460069  0.29052300  0.43176575     1.54400
O48         O  0.39485693  0.24674395  0.44056078    -0.80400
O49         O  0.44635849  0.37511566  0.44961859    -0.78700
O50         O  0.36474549  0.25425282  0.49273353    -0.82900
O51         O  0.34122053  0.30068079  0.43143405    -0.77700
O52         O  0.45933622  0.27145179  0.46807308    -0.79500
O53         O  0.39406242  0.38550461  0.50464271    -0.82200
C54         C  0.35580970  0.30193146  0.39916813     0.98500
C55         C  0.37799165  0.23456181  0.46795480     1.06000
O56         O  0.40457136  0.31693247  0.47251149    -1.11200
O57         O  0.42393928  0.32916048  0.54899835    -0.73700
O58         O  0.36932426  0.31120788  0.54516900    -0.77100
O59         O  0.38800369  0.30784232  0.39489472    -0.77800
C60         C  0.39735491  0.31562727  0.56339592     0.97400
O61         O  0.34542740  0.36200012  0.48341769    -0.75800
O62         O  0.47689712  0.32012133  0.49585591    -0.81000
C63         C  0.46624905  0.35980874  0.42696352     1.00100
C64         C  0.48024436  0.28816121  0.48831920     1.06000
O65         O  0.46097796  0.32847015  0.41747571    -0.76600
C66         C  0.36302580  0.38818064  0.49422058     1.04300
Fe67       Fe  0.35588339  0.05905252  0.49756211     1.65800
Fe68       Fe  0.43717704  0.09149692  0.49355699     1.73200
Fe69       Fe  0.41667529  0.02811754  0.55454683     1.54400
O70         O  0.38241209  0.04936137  0.59171238    -0.80400
O71         O  0.47440882  0.05312062  0.49367211    -0.78700
O72         O  0.33677607  0.05152029  0.55324965    -0.82900
O73         O  0.36020045  0.50229200  0.49291277    -0.77700
O74         O  0.45887480  0.05794025  0.57209375    -0.79500
O75         O  0.42736210  0.07596769  0.44024191    -0.82200
C76         C  0.36964337  0.48249109  0.51924789     0.98500
C77         C  0.34991650  0.04908986  0.58608471     1.06000
O78         O  0.40279185  0.06051334  0.51555071    -1.11200
O79         O  0.40325253  0.13228803  0.49001161    -0.73700
O80         O  0.35003627  0.11355775  0.50346673    -0.77100
O81         O  0.38946076  0.49307300  0.54458137    -0.77800
C82         C  0.37141653  0.13801194  0.49622311     0.97400
O83         O  0.37128000  0.06315384  0.44087956    -0.75800
O84         O  0.45115642  0.10880570  0.54528862    -0.81000
C85         C  0.47175663  0.02041452  0.49747720     1.00100
C86         C  0.46903292  0.08865746  0.56524926     1.06000
O87         O  0.44832956  0.00578076  0.51667887    -0.76600
C88         C  0.40041672  0.06582343  0.42395436     1.04300
Fe89       Fe  0.20153355  0.26935200  0.74807713     1.65800
Fe90       Fe  0.24060984  0.18950489  0.74666679     1.73200
Fe91       Fe  0.17821257  0.20732302  0.80964201     1.54400
O92         O  0.19752502  0.24501539  0.84354304    -0.80400
O93         O  0.20606363  0.14901289  0.75030649    -0.78700
O94         O  0.19773150  0.29007180  0.80319999    -0.82900
O95         O  0.14785494  0.26485287  0.74427973    -0.77700
O96         O  0.21187040  0.16869279  0.82825899    -0.79500
O97         O  0.22239902  0.19695533  0.69370880    -0.82200
C98         C  0.12682333  0.25475033  0.76918106     0.98500
C99         C  0.19694528  0.27753853  0.83653609     1.06000
O100        O  0.20747936  0.22258003  0.76822370    -1.11200
O101        O  0.27862568  0.22609249  0.74000455    -0.73700
O102        O  0.25496115  0.27884656  0.74669573    -0.77100
O103        O  0.13710257  0.23989135  0.79848322    -0.77800
C104        C  0.28097039  0.25893525  0.74124285     0.97400
O105        O  0.20236101  0.25150570  0.69278557    -0.75800
O106        O  0.26060045  0.17783404  0.79801511    -0.81000
C107        C  0.17400140  0.14762179  0.75758343     1.00100
C108        C  0.24242568  0.15962896  0.81991122     1.06000
O109        O  0.15764862  0.17096666  0.77558276    -0.76600
C110        C  0.20805029  0.22216840  0.67712539     1.04300
Fe111      Fe  0.45581759  0.27450000  0.74081708     1.65800
Fe112      Fe  0.49013080  0.19358350  0.73701622     1.73200
Fe113      Fe  0.42132708  0.21416932  0.68444526     1.54400
O114        O  0.38273007  0.24771681  0.70402785    -0.80400
O115        O  0.50429392  0.18398269  0.68289146    -0.78700
O116        O  0.40408203  0.26985064  0.75575533    -0.82900
O117        O  0.44303656  0.29597740  0.68755266    -0.77700
O118        O  0.40480246  0.17777334  0.72097748    -0.79500
O119        O  0.03021392  0.22405315  0.73780170    -0.82200
C120        C  0.43685046  0.28380176  0.65482710     0.98500
C121        C  0.37859470  0.26095288  0.73608535     1.06000
O122        O  0.45646040  0.22792247  0.72025564    -1.11200
O123        O  0.47567306  0.19963554  0.79141185    -0.73700
O124        O  0.46512271  0.25654664  0.79585433    -0.77100
O125        O  0.43633153  0.25142438  0.64772165    -0.77800
C126        C  0.46676978  0.22601927  0.81021296     0.97400
O127        O  0.50888342  0.28213709  0.72949110    -0.75800
O128        O  0.45544470  0.15363228  0.73566495    -0.81000
C129        C  0.48348208  0.16578897  0.66411910     1.00100
C130        C  0.42292594  0.15283195  0.73330267     1.06000
O131        O  0.45234243  0.17547821  0.65983826    -0.76600
C132        C  0.03511725  0.25604892  0.73129109     1.04300
Fe133      Fe  0.12061991  0.30964309  0.00482818     1.65800
Fe134      Fe  0.19768391  0.34998459  0.99356946     1.73200
Fe135      Fe  0.18590689  0.29288088  0.06325748     1.54400
O136        O  0.14844452  0.31344854  0.09769117    -0.80400
O137        O  0.24048803  0.31827493  0.99907366    -0.78700
O138        O  0.10307199  0.30414890  0.06056856    -0.82900
O139        O  0.12869382  0.25590765  0.00120288    -0.77700
O140        O  0.22269397  0.33082492  0.07676345    -0.79500
O141        O  0.18958652  0.32598051  0.94355432    -0.82200
C142        C  0.14095031  0.23654616  0.02665583     0.98500
C143        C  0.11636444  0.30788579  0.09291510     1.06000
O144        O  0.16780055  0.31774248  0.02044716    -1.11200
O145        O  0.15877947  0.38517981  0.98453192    -0.73700
O146        O  0.10965748  0.36339805  0.00743672    -0.77100
O147        O  0.15534873  0.24920531  0.05524999    -0.77800
C148        C  0.12764413  0.38878311  0.99513383     0.97400
O149        O  0.13395570  0.31145998  0.94757816    -0.75800
O150        O  0.20851821  0.37580585  0.04187157    -0.81000
C151        C  0.24320895  0.28653107  0.00823470     1.00100
C152        C  0.22819118  0.36162540  0.06528595     1.06000
O153        O  0.22182105  0.27106231  0.02938694    -0.76600
C154        C  0.16246524  0.31360103  0.92939567     1.04300
Fe155      Fe  0.11769818  0.06275519  0.99718053     1.65800
Fe156      Fe  0.19973341  0.09225243  0.99425714     1.73200
Fe157      Fe  0.17656239  0.02538254  0.93990779     1.54400
O158        O  0.14833363  0.49062136  0.93375860    -0.80400
O159        O  0.20905595  0.10730600  0.94053648    -0.78700
O160        O  0.12012079  0.50311913  0.98589760    -0.82900
O161        O  0.09643915  0.05349705  0.94334132    -0.77700
O162        O  0.21662663  0.50747940  0.96033213    -0.79500
O163        O  0.16704496  0.13388954  0.00078156    -0.82200
C164        C  0.10852575  0.04720951  0.91047051     0.98500
C165        C  0.12991174  0.48146346  0.96120166     1.06000
O166        O  0.16414727  0.06058263  0.97694898    -1.11200
O167        O  0.19285151  0.07765590  0.04824326    -0.73700
O168        O  0.13587346  0.06929049  0.05242669    -0.77100
O169        O  0.14068731  0.04387906  0.90350741    -0.77800
C170        C  0.16604744  0.07029842  0.06694399     0.97400
O171        O  0.11351548  0.11685140  0.98842986    -0.75800
O172        O  0.23760950  0.05465315  0.99162673    -0.81000
C173        C  0.22657803  0.08647567  0.92074950     1.00100
C174        C  0.23634785  0.02177929  0.99006024     1.06000
O175        O  0.21706751  0.05506564  0.91676391    -0.76600
C176        C  0.13540183  0.14060369  0.99560881     1.04300
Fe177      Fe  0.16289174  0.17967510  0.50142549     1.65800
Fe178      Fe  0.07911364  0.15550665  0.50114828     1.73200
Fe179      Fe  0.10761629  0.21040337  0.56612411     1.54400
O180        O  0.13948170  0.17962292  0.59670901    -0.80400
O181        O  0.04741325  0.19861794  0.50744300    -0.78700
O182        O  0.18420793  0.18050353  0.55627602    -0.82900
O183        O  0.16427257  0.23453152  0.49829380    -0.77700
O184        O  0.06222128  0.18504676  0.58291608    -0.79500
O185        O  0.08817506  0.17273045  0.44797841    -0.82200
C186        C  0.15916829  0.25485273  0.52575732     0.98500
C187        C  0.17179758  0.17982156  0.58972089     1.06000
O188        O  0.11680047  0.18128026  0.52246769    -1.11200
O189        O  0.10811690  0.11143823  0.49213167    -0.73700
O190        O  0.16360372  0.12432920  0.50135316    -0.77100
O191        O  0.14904145  0.24297699  0.55671010    -0.77800
C192        C  0.13959659  0.10232399  0.49459457     0.97400
O193        O  0.14509671  0.18126257  0.44577369    -0.75800
O194        O  0.06643850  0.13592448  0.55259018    -0.81000
C195        C  0.05273920  0.23068542  0.51479086     1.00100
C196        C  0.04995405  0.15569087  0.57436926     1.06000
O197        O  0.07765765  0.24145708  0.53423476    -0.76600
C198        C  0.11538204  0.18080198  0.43032205     1.04300
Fe199      Fe  0.16597997  0.42716049  0.47836360     1.65800
Fe200      Fe  0.08811203  0.38851712  0.48908940     1.73200
Fe201      Fe  0.10180986  0.44311603  0.41812861     1.54400
O202        O  0.09721510  0.99228554  0.45285768    -0.80400
O203        O  0.07911830  0.36046018  0.44188066    -0.78700
O204        O  0.14818656  0.98547237  0.48103098    -0.82900
O205        O  0.18450177  0.43119122  0.42292156    -0.77700
O206        O  0.06564776  0.46694075  0.45021122    -0.79500
O207        O  0.12645380  0.35333283  0.50179402    -0.82200
C208        C  0.17140900  0.42725249  0.39052728     0.98500
C209        C  0.12343055  0.00471248  0.46931261     1.06000
O210        O  0.11892140  0.41961307  0.46208064    -1.11200
O211        O  0.09494901  0.41450541  0.53756934    -0.73700
O212        O  0.15120539  0.42694585  0.53543369    -0.77100
O213        O  0.13952666  0.42101480  0.38555394    -0.77800
C214        C  0.12201072  0.42602526  0.55252334     0.97400
O215        O  0.17560094  0.37324920  0.47726126    -0.75800
O216        O  0.04548140  0.42053154  0.48058175    -0.81000
C217        C  0.06047998  0.37333902  0.41675952     1.00100
C218        C  0.04365928  0.45239982  0.47129065     1.06000
O219        O  0.06532021  0.40429484  0.40513980    -0.76600
C220        C  0.15736297  0.34866887  0.49083200     1.04300
Fe221      Fe  0.32639148  0.46761009  0.74089784     1.65800
Fe222      Fe  0.28858818  0.04449712  0.74705186     1.73200
Fe223      Fe  0.35710770  0.02631792  0.80109762     1.54400
O224        O  0.34837722  0.49335013  0.83284422    -0.80400
O225        O  0.32358718  0.08430519  0.74626597    -0.78700
O226        O  0.33790506  0.44773573  0.79529489    -0.82900
O227        O  0.37827946  0.47047884  0.72583026    -0.77700
O228        O  0.32602924  0.06638338  0.82301777    -0.79500
O229        O  0.30332991  0.03581742  0.69308256    -0.82200
C230        C  0.40426921  0.48056184  0.74399099     0.98500
C231        C  0.34510558  0.46081869  0.82740681     1.06000
O232        O  0.32208328  0.01097646  0.76603068    -1.11200
O233        O  0.24923533  0.00880527  0.74462183    -0.73700
O234        O  0.27307221  0.46087493  0.75150603    -0.77100
O235        O  0.39555821  0.99156890  0.78377850    -0.77800
C236        C  0.24820447  0.48176155  0.74460944     0.97400
O237        O  0.31805878  0.48441872  0.68534750    -0.75800
O238        O  0.27397840  0.05702469  0.80039893    -0.81000
C239        C  0.35615026  0.08484448  0.74841056     1.00100
C240        C  0.29471481  0.07559926  0.81883118     1.06000
O241        O  0.37400039  0.06042475  0.76227045    -0.76600
C242        C  0.31624561  0.51459693  0.67017547     1.04300
Fe243      Fe  0.07979018  0.46820128  0.73108528     1.65800
Fe244      Fe  0.03708264  0.04156829  0.75342652     1.73200
Fe245      Fe  0.09668677  0.02415075  0.68733134     1.54400
O246        O  0.14307498  0.49581297  0.67975870    -0.80400
O247        O  0.01483412  0.05567157  0.70342889    -0.78700
O248        O  0.13379374  0.47281547  0.73533092    -0.82900
O249        O  0.08442563  0.44867784  0.67594451    -0.77700
O250        O  0.11885020  0.06047136  0.72044874    -0.79500
O251        O  0.00639973  0.51347115  0.74504529    -0.82200
C252        C  0.08349946  0.46169900  0.64299063     0.98500
C253        C  0.15435094  0.48268249  0.70967618     1.06000
O254        O  0.06927422  0.00870086  0.72984239    -1.11200
O255        O  0.05710743  0.03275599  0.80570183    -0.73700
O256        O  0.07848591  0.48355456  0.78736183    -0.77100
O257        O  0.08063800  0.49416317  0.63676630    -0.77800
C258        C  0.07716414  0.51307927  0.80362497     0.97400
O259        O  0.02563869  0.46051576  0.72976250    -0.75800
O260        O  0.07169257  0.08171964  0.74917282    -0.81000
C261        C  0.03232642  0.07169507  0.67891508     1.00100
C262        C  0.10330155  0.08339437  0.73989157     1.06000
O263        O  0.06257892  0.06219945  0.67030930    -0.76600
C264        C  0.00121190  0.48132402  0.73918683     1.04300
Fe265      Fe  0.07452879  0.21983087  0.24971149     1.65800
Fe266      Fe  0.03598710  0.29978238  0.24533379     1.73200
Fe267      Fe  0.09486645  0.28264763  0.31110590     1.54400
O268        O  0.07385336  0.24544215  0.34470999    -0.80400
O269        O  0.06974722  0.34051721  0.25077687    -0.78700
O270        O  0.07734010  0.19988054  0.30537465    -0.82900
O271        O  0.12870203  0.22488056  0.24734899    -0.77700
O272        O  0.06012368  0.32132134  0.32753728    -0.79500
O273        O  0.05796549  0.29208308  0.19383633    -0.82200
C274        C  0.14855285  0.23576997  0.27279952     0.98500
C275        C  0.07664707  0.21293547  0.33847823     1.06000
O276        O  0.06773670  0.26685718  0.26882865    -1.11200
O277        O  0.99845726  0.26329048  0.23676115    -0.73700
O278        O  0.02048335  0.21050721  0.24755375    -0.77100
O279        O  0.13657228  0.25006861  0.30186197    -0.77800
C280        C  0.99501471  0.23065856  0.23994829     0.97400
O281        O  0.07544617  0.23666049  0.19376760    -0.75800
O282        O  0.01304846  0.31133232  0.29546288    -0.81000
C283        C  0.10166290  0.34133825  0.25803584     1.00100
C284        C  0.03011759  0.33022208  0.31737337     1.06000
O285        O  0.11711385  0.31841064  0.27725269    -0.76600
C286        C  0.07210783  0.26627762  0.17788916     1.04300
Fe287      Fe  0.32229292  0.20993297  0.24051148     1.65800
Fe288      Fe  0.29287310  0.29275968  0.24102614     1.73200
Fe289      Fe  0.35619007  0.26893945  0.18190838     1.54400
O290        O  0.39280187  0.23128235  0.19583901    -0.80400
O291        O  0.27603375  0.30482178  0.18861260    -0.78700
O292        O  0.37514320  0.21107634  0.25025061    -0.82900
O293        O  0.33043552  0.18926554  0.18522296    -0.77700
O294        O  0.37887556  0.30156946  0.21765075    -0.79500
O295        O  0.25129704  0.26011453  0.24763228    -0.82200
C296        C  0.33441150  0.20236141  0.15226934     0.98500
C297        C  0.39925040  0.21819370  0.22748510     1.06000
O298        O  0.32301607  0.25676134  0.22092811    -1.11200
O299        O  0.30903273  0.28455391  0.29403628    -0.73700
O300        O  0.31809526  0.22735264  0.29697160    -0.77100
O301        O  0.33444379  0.23491988  0.14623886    -0.77800
C302        C  0.31773847  0.25771230  0.31197429     0.97400
O303        O  0.26812124  0.20596969  0.23423970    -0.75800
O304        O  0.33144386  0.32928359  0.23806823    -0.81000
C305        C  0.29646440  0.32191755  0.16801742     1.00100
C306        C  0.36384339  0.32701567  0.23317280     1.06000
O307        O  0.32715264  0.31132918  0.16222977    -0.76600
C308        C  0.24452867  0.22827571  0.24195161     1.04300
Fe309      Fe  0.41978956  0.17990238  0.98493119     1.65800
Fe310      Fe  0.33958770  0.14328574  0.99046170     1.73200
Fe311      Fe  0.35753364  0.20342511  0.92533211     1.54400
O312        O  0.39197504  0.24335974  0.93387559    -0.80400
O313        O  0.32689387  0.12201189  0.93995286    -0.78700
O314        O  0.41730722  0.23483247  0.98811889    -0.82900
O315        O  0.43905328  0.18413023  0.92921180    -0.77700
O316        O  0.32340987  0.22698240  0.96042548    -0.79500
O317        O  0.37491090  0.10431231  0.99701614    -0.82200
C318        C  0.42588478  0.18342946  0.89638401     0.98500
C319        C  0.40855806  0.25479975  0.96145525     1.06000
O320        O  0.37270790  0.17512804  0.96712962    -1.11200
O321        O  0.34840719  0.16166561  0.04294997    -0.73700
O322        O  0.40337970  0.17912348  0.04157441    -0.77100
O323        O  0.39349063  0.18083929  0.89079575    -0.77800
C324        C  0.37460724  0.17422357  0.05878041     0.97400
O325        O  0.42732270  0.12509638  0.98363439    -0.75800
O326        O  0.30049240  0.17962184  0.98723109    -0.81000
C327        C  0.30862081  0.13995176  0.91818422     1.00100
C328        C  0.30061494  0.21201797  0.98036002     1.06000
O329        O  0.31742344  0.17058957  0.90944145    -0.76600
C330        C  0.40700511  0.09991266  0.99170469     1.04300
Fe331      Fe  0.42677362  0.43110079  0.99374596     1.65800
Fe332      Fe  0.34907622  0.39173979  0.98657972     1.73200
Fe333      Fe  0.36273210  0.45000062  0.05464251     1.54400
O334        O  0.40217127  0.43256238  0.08801763    -0.80400
O335        O  0.30555975  0.42125714  0.99562474    -0.78700
O336        O  0.44668740  0.43723496  0.04809881    -0.82900
O337        O  0.41593853  0.98458202  0.99674599    -0.77700
O338        O  0.32885252  0.41051487  0.07193766    -0.79500
O339        O  0.35474957  0.41666908  0.93651159    -0.82200
C340        C  0.40401916  0.00379190  0.02271104     0.98500
C341        C  0.43427596  0.43637073  0.08125631     1.06000
O342        O  0.37977507  0.42439417  0.01162864    -1.11200
O343        O  0.38743916  0.35733094  0.97318638    -0.73700
O344        O  0.43601446  0.37662079  0.99806554    -0.77100
O345        O  0.38940852  0.99097641  0.05138126    -0.77800
C346        C  0.41739350  0.35181597  0.98571274     0.97400
O347        O  0.41115031  0.42869756  0.93711990    -0.75800
O348        O  0.34112196  0.36551891  0.03561121    -0.81000
C349        C  0.30182065  0.45280789  0.00454318     1.00100
C350        C  0.32320811  0.37950985  0.06114454     1.06000
O351        O  0.32400594  0.46964423  0.02298242    -0.76600
C352        C  0.38186589  0.42774517  0.92059804     1.04300
C353        C  0.41954484  0.06323669  0.99517494    -0.15100
C354        C  0.40368453  0.04242332  0.02043132    -0.30300
H355        H  0.43862505  0.05296255  0.97576319     0.13900
H356        H  0.38638314  0.05479830  0.04049027     0.14500
C357        C  0.41448928  0.29309218  0.96045390    -0.15100
C358        C  0.42849458  0.31438869  0.98624146    -0.30300
H359        H  0.40217345  0.30563578  0.93677958     0.13900
H360        H  0.44258959  0.30403508  0.00982144     0.14500
C361        C  0.34186875  0.17999764  0.11941278    -0.15100
C362        C  0.37036858  0.18634053  0.09800230    -0.30300
H363        H  0.32275492  0.16108444  0.11087200     0.13900
H364        H  0.38961264  0.20442736  0.10822464     0.14500
C365        C  0.20726466  0.21823056  0.24482629    -0.15100
C366        C  0.18692619  0.23543393  0.26954044    -0.30300
H367        H  0.19660694  0.19878860  0.22631713     0.13900
H368        H  0.19963138  0.25284308  0.28895969     0.14500
C369        C  0.46208988  0.21623207  0.21449887    -0.15100
C370        C  0.43581742  0.21381849  0.23912693    -0.30300
H371        H  0.95653163  0.19310909  0.21694931     0.13900
H372        H  0.44128726  0.21434377  0.26877104     0.14500
C373        C  0.43911277  0.47850838  0.72659161    -0.15100
C374        C  0.46741081  0.46782440  0.74499940    -0.30300
H375        H  0.44227801  0.49121622  0.69972900     0.13900
H376        H  0.95455077  0.44864381  0.72607365     0.14500
C377        C  0.21172148  0.46962144  0.74186604    -0.15100
C378        C  0.19262017  0.48199867  0.71335820    -0.30300
H379        H  0.20025717  0.45395286  0.76384505     0.13900
H380        H  0.20627693  0.49609249  0.69146563     0.14500
C381        C  0.35079193  0.43788846  0.86022284    -0.15100
C382        C  0.37874910  0.44246506  0.88233195    -0.30300
H383        H  0.33124694  0.41880338  0.86742517     0.13900
H384        H  0.39888063  0.46026806  0.87326874     0.14500
C385        C  0.11859939  0.44070158  0.59055512    -0.15100
C386        C  0.08874875  0.43899261  0.61043567    -0.30300
H387        H  0.13991498  0.45603464  0.60112870     0.13900
H388        H  0.06718738  0.42345794  0.60093040     0.14500
C389        C  0.11182910  0.19256985  0.39094808    -0.15100
C390        C  0.08191285  0.19045823  0.37154576    -0.30300
H391        H  0.13339669  0.20676472  0.37882375     0.13900
H392        H  0.05997000  0.17625512  0.38271095     0.14500
C393        C  0.14735932  0.06424415  0.48923675    -0.15100
C394        C  0.12272632  0.04320612  0.47478158    -0.30300
H395        H  0.17230677  0.05372397  0.49710895     0.13900
H396        H  0.09864933  0.05519745  0.46603439     0.14500
C397        C  0.17089864  0.31247748  0.49357566    -0.15100
C398        C  0.16142960  0.29330144  0.52332482    -0.30300
H399        H  0.18368058  0.30062919  0.46972132     0.13900
H400        H  0.15006211  0.30702197  0.54696579     0.14500
C401        C  0.08470113  0.04162656  0.87885146    -0.15100
C402        C  0.08659397  0.01167524  0.85898508    -0.30300
H403        H  0.06765009  0.06262907  0.87042706     0.13900
H404        H  0.10431593  0.49404802  0.85362158     0.14500
C405        C  0.26246818  0.09591941  0.91069310    -0.15100
C406        C  0.27283874  0.12917580  0.91035371    -0.30300
H407        H  0.28162037  0.07520879  0.90977035     0.13900
H408        H  0.25351411  0.14973353  0.90946288     0.14500
C409        C  0.26596211  0.00289045  0.00378951    -0.15100
C410        C  0.27079751  0.47028827  0.99198441    -0.30300
H411        H  0.28629531  0.01782810  0.01696405     0.13900
H412        H  0.25111145  0.45511633  0.97802105     0.14500
C413        C  0.11374571  0.42485541  0.99305279    -0.15100
C414        C  0.12253212  0.44365522  0.96278178    -0.30300
H415        H  0.10404141  0.43732983  0.01816788     0.13900
H416        H  0.13179730  0.42923890  0.93855133     0.14500
C417        C  0.14152063  0.19803028  0.02373305    -0.15100
C418        C  0.12500092  0.17789393  0.99872444    -0.30300
H419        H  0.15887521  0.18522720  0.04315899     0.13900
H420        H  0.10576875  0.18879507  0.98018511     0.14500
C421        C  0.08687537  0.27152371  0.13990511    -0.15100
C422        C  0.09435297  0.30358608  0.12641344    -0.30300
H423        H  0.09535819  0.24872755  0.12440910     0.13900
H424        H  0.08859112  0.32658127  0.14290368     0.14500
C425        C  0.27276827  0.23242538  0.99623767    -0.15100
C426        C  0.27214417  0.26698446  0.99320629    -0.30300
H427        H  0.25235192  0.21856912  0.01092891     0.13900
H428        H  0.29231752  0.28091096  0.97822817     0.14500
C429        C  0.26102868  0.37932273  0.07360199    -0.15100
C430        C  0.29123899  0.36161701  0.07278793    -0.30300
H431        H  0.26138184  0.40749427  0.07103325     0.13900
H432        H  0.29083162  0.33340412  0.07093586     0.12900
C433        C  0.44830604  0.18804009  0.86311975    -0.15100
C434        C  0.45557754  0.22029470  0.84964945    -0.30300
H435        H  0.45291582  0.16529590  0.84585101     0.13900
H436        H  0.44847609  0.24294082  0.86615166     0.14500
C437        C  0.02137610  0.10617698  0.66529903    -0.15100
C438        C  0.98884975  0.11784009  0.66655155    -0.30300
H439        H  0.04187851  0.12438200  0.65837411     0.13900
H440        H  0.47051139  0.11039912  0.65622789     0.14500
C441        C  0.37328169  0.11585746  0.73587221    -0.15100
C442        C  0.40617286  0.12115300  0.74433916    -0.30300
H443        H  0.35820584  0.13530991  0.72108155     0.13900
H444        H  0.42129715  0.10169308  0.75906424     0.14500
C445        C  0.19501239  0.21651860  0.63884814    -0.15100
C446        C  0.19485409  0.18506872  0.62178742    -0.30300
H447        H  0.18117696  0.23802834  0.62604128     0.13900
H448        H  0.20775355  0.16272746  0.63397309     0.14500
C449        C  0.08887550  0.25738876  0.76498346    -0.15100
C450        C  0.07135090  0.26808741  0.73467524    -0.30300
H451        H  0.07408664  0.24533678  0.78744280     0.13900
H452        H  0.08414332  0.28116642  0.71161306     0.14500
C453        C  0.34332451  0.26227868  0.75232539    -0.15100
C454        C  0.31559209  0.27355695  0.73334625    -0.30300
H455        H  0.33943330  0.24876642  0.77862769     0.13900
H456        H  0.31912660  0.28805786  0.70762017     0.14500
C457        C  0.19307512  0.30108795  0.86896707    -0.15100
C458        C  0.16468151  0.29873831  0.89119573    -0.30300
H459        H  0.21437930  0.31799569  0.87622793     0.13900
H460        H  0.14343817  0.28233839  0.88240161     0.14500
C461        C  0.28554568  0.11226597  0.82693492    -0.15100
C462        C  0.25273158  0.12338777  0.82826127    -0.30300
H463        H  0.30627961  0.13124064  0.82635893     0.13900
H464        H  0.23212922  0.10436443  0.83063383     0.14500
C465        C  0.12202414  0.11366539  0.75223248    -0.15100
C466        C  0.15555520  0.11725455  0.74485930    -0.30300
H467        H  0.10784269  0.13334021  0.76789028     0.13900
H468        H  0.16981483  0.09750788  0.72939913     0.14500
C469        C  0.32711304  0.04396344  0.61911466    -0.15100
C470        C  0.32524765  0.01260706  0.63665972    -0.30300
H471        H  0.31550606  0.06689907  0.63168827     0.13900
H472        H  0.33566784  0.49641211  0.61523569     0.14500
C473        C  0.50540335  0.09774157  0.57318355    -0.15100
C474        C  0.01303838  0.14860324  0.58168953    -0.30300
H475        H  0.52424203  0.07673249  0.57335483     0.13900
H476        H  0.99506715  0.16996852  0.57733423     0.14500
C477        C  0.49760872  0.99882299  0.47983397    -0.15100
C478        C  0.01513848  0.47313117  0.48592780    -0.30300
H479        H  0.51784045  0.01140509  0.46355544     0.13900
H480        H  0.99456575  0.45970124  0.50080287     0.14500
C481        C  0.40059649  0.30175434  0.60191472    -0.15100
C482        C  0.42878002  0.30746556  0.62342821    -0.30300
H483        H  0.38156158  0.28277326  0.61097666     0.13900
H484        H  0.44743832  0.32735172  0.61596663     0.14500
C485        C  0.36001532  0.44524629  0.52198936    -0.15100
C486        C  0.34929794  0.42439451  0.49417438    -0.30300
H487        H  0.36946455  0.43250384  0.54706714     0.13900
H488        H  0.33913354  0.43520091  0.46853547     0.14500
C489        C  0.37716127  0.19601462  0.46985334    -0.15100
C490        C  0.36038909  0.17523991  0.49434629    -0.30300
H491        H  0.39429276  0.18346497  0.44973157     0.13900
H492        H  0.34137090  0.18561221  0.51376805     0.14500
C493        C  0.32983118  0.26311865  0.35112430    -0.15100
C494        C  0.33513306  0.29562279  0.36515169    -0.30300
H495        H  0.33807471  0.24058051  0.36707034     0.13900
H496        H  0.32873538  0.31832437  0.34854071     0.14500
C497        C  0.50979992  0.26983324  0.50311049    -0.15100
C498        C  0.02842250  0.25618066  0.50094191    -0.30300
H499        H  0.53044303  0.28436110  0.51621323     0.13900
H500        H  0.02881296  0.28232974  0.51242518     0.14500
C501        C  0.49845605  0.37762256  0.41560942    -0.15100
C502        C  0.02933624  0.35361050  0.40625924    -0.30300
H503        H  0.49969164  0.40551205  0.42036159     0.13900
H504        H  0.02996542  0.32553540  0.40982495     0.14500
C505        C  0.19673280  0.46518421  0.34254556    -0.15100
C506        C  0.19306009  0.43284691  0.35714099    -0.30300
H507        H  0.16683873  0.99082367  0.35913334     0.13900
H508        H  0.20105134  0.41008734  0.34135609     0.14500
C509        C  0.20256047  0.05439607  0.12117841    -0.15100
C510        C  0.17079437  0.06009592  0.10657415    -0.30300
H511        H  0.22561250  0.05996278  0.10485330     0.13900
H512        H  0.14804904  0.05216890  0.12231484     0.14500
C513        C  0.28767035  0.35824751  0.15818609    -0.15100
C514        C  0.25492746  0.36947493  0.15659614    -0.30300
H515        H  0.30856379  0.37703539  0.15732306     0.13900
H516        H  0.23421928  0.35049584  0.15561365     0.14500
C517        C  0.15538001  0.36876065  0.24186977    -0.15100
C518        C  0.12109155  0.37002129  0.24288315    -0.30300
H519        H  0.16950095  0.34698381  0.25380741     0.13900
H520        H  0.10696028  0.39172763  0.23082505     0.14500
C521        C  0.45729927  0.44277325  0.11339143    -0.15100
C522        C  0.45519975  0.47352954  0.13152615    -0.30300
H523        H  0.47254543  0.42146058  0.12449549     0.13900
H524        H  0.44708765  0.99388770  0.11988062     0.14500
C525        C  0.34352670  0.01533627  0.24032074    -0.15100
C526        C  0.31630519  0.01931768  0.26364154    -0.30300
H527        H  0.33892425  0.01093217  0.21087820     0.13900
H528        H  0.32107713  0.02375647  0.29303518     0.14500
C529        C  0.07180550  0.02699519  0.24013660    -0.15100
C530        C  0.09224803  0.01561777  0.21204335    -0.30300
H531        H  0.08275265  0.03899166  0.26470448     0.13900
H532        H  0.07957073  0.00368790  0.18830750     0.14500
C533        C  0.40402944  0.05347333  0.38470673    -0.15100
C534        C  0.43375073  0.05625633  0.36446858    -0.30300
H535        H  0.38325116  0.03755032  0.37389549     0.13900
H536        H  0.45459618  0.07278140  0.37391437     0.14500
C537        C  0.98765685  0.37851913  0.32058529    -0.15100
C538        C  0.02019626  0.36701199  0.32279437    -0.30300
H539        H  0.96660299  0.35990254  0.32087026     0.13900
H540        H  0.04106299  0.38578198  0.32432686     0.14500
C541        C  0.38435554  0.35576246  0.24478868    -0.15100
C542        C  0.41360581  0.36346961  0.22679180    -0.30300
H543        H  0.37412237  0.37209121  0.26704211     0.13900
H544        H  0.42244163  0.34867314  0.20270964     0.14500
Fe545      Fe  0.45721358  0.51773964  0.24413248     1.65800
Fe546      Fe  0.49278437  0.94408916  0.24636625     1.73200
Fe547      Fe  0.42455758  0.96259163  0.30235423     1.54400
O548        O  0.43887518  0.00030883  0.33892286    -0.80400
O549        O  0.45907349  0.90342946  0.24846135    -0.78700
O550        O  0.45861088  0.53703122  0.29881966    -0.82900
O551        O  0.40243653  0.51840864  0.24480141    -0.77700
O552        O  0.45711255  0.92455655  0.32579185    -0.79500
O553        O  0.47767450  0.95049153  0.19256175    -0.82200
C554        C  0.38037436  0.49448036  0.25137581     0.98500
C555        C  0.44140290  0.52644439  0.32707558     1.06000
O556        O  0.45859992  0.97757109  0.26490896    -1.11200
O557        O  0.03469937  0.97987590  0.24301847    -0.73700
O558        O  0.51195483  0.52120809  0.24038961    -0.77100
O559        O  0.38446279  0.99480190  0.28429851    -0.77800
C560        C  0.03522396  0.51162974  0.24250103     0.97400
O561        O  0.45237917  0.50216829  0.18938299    -0.75800
O562        O  0.50762199  0.93526885  0.29991538    -0.81000
C563        C  0.42671039  0.90173347  0.25214668     1.00100
C564        C  0.48795578  0.91532584  0.31828320     1.06000
O565        O  0.40830267  0.92570711  0.26637445    -0.76600
C566        C  0.46779924  0.47925399  0.17004088     1.04300
Fe567      Fe  0.20436002  0.51750691  0.23221817     1.65800
Fe568      Fe  0.23758002  0.93972228  0.24594385     1.73200
Fe569      Fe  0.18374119  0.96204674  0.17639887     1.54400
O570        O  0.14358899  0.99724420  0.18377301    -0.80400
O571        O  0.26227549  0.92588721  0.19676890    -0.78700
O572        O  0.15025612  0.51386010  0.23630640    -0.82900
O573        O  0.20047660  0.53738329  0.17689163    -0.77700
O574        O  0.15708639  0.92661823  0.20644364    -0.79500
O575        O  0.27696613  0.97412132  0.25607418    -0.82200
C576        C  0.20038584  0.52451767  0.14375078     0.98500
C577        C  0.12982166  0.50426975  0.21082166     1.06000
O578        O  0.20871615  0.97466622  0.22138507    -1.11200
O579        O  0.21507475  0.94806062  0.29770989    -0.73700
O580        O  0.20512330  0.50041467  0.28817510    -0.77100
O581        O  0.20982486  0.99879680  0.14653076    -0.77800
C582        C  0.20938938  0.47077890  0.30382003     0.97400
O583        O  0.25834179  0.52621627  0.23177111    -0.75800
O584        O  0.20062175  0.90231978  0.23841321    -0.81000
C585        C  0.24590867  0.91057002  0.17120355     1.00100
C586        C  0.16978887  0.90275615  0.22665063     1.06000
O587        O  0.21677308  0.92166890  0.16062701    -0.76600
C588        C  0.28357479  0.50545406  0.23774814     1.04300
Fe589      Fe  0.36110173  0.81236584  0.47771103     1.65800
Fe590      Fe  0.44188994  0.84674265  0.48719658     1.73200
Fe591      Fe  0.42758706  0.78155398  0.42683240     1.54400
O592        O  0.40939305  0.73985712  0.45624885    -0.80400
O593        O  0.47719260  0.84942380  0.44200846    -0.78700
O594        O  0.35831761  0.75731261  0.47868744    -0.82900
O595        O  0.34350183  0.81358147  0.42247815    -0.77700
O596        O  0.47238983  0.77587612  0.45542593    -0.79500
O597        O  0.41289316  0.88755556  0.46773168    -0.82200
C598        C  0.35403721  0.79537984  0.39482523     0.98500
C599        C  0.38150380  0.73401807  0.47374899     1.06000
O600        O  0.40973828  0.81386041  0.46329667    -1.11200
O601        O  0.41634225  0.84662771  0.53854157    -0.73700
O602        O  0.37548495  0.80710772  0.53273640    -0.77100
O603        O  0.38385375  0.78154152  0.39390365    -0.77800
C604        C  0.39843738  0.82194835  0.55193685     0.97400
O605        O  0.35940366  0.86780471  0.48021609    -0.75800
O606        O  0.47063955  0.80721983  0.50765653    -0.81000
C607        C  0.47635448  0.83648360  0.40946773     1.00100
C608        C  0.48308894  0.78318379  0.48777770     1.06000
O609        O  0.44902275  0.82214471  0.39745052    -0.76600
C610        C  0.38073145  0.89256378  0.47303889     1.04300
Fe611      Fe  0.35974792  0.55686423  0.49383859     1.65800
Fe612      Fe  0.44031925  0.59307649  0.48557631     1.73200
Fe613      Fe  0.42438591  0.53282514  0.55128000     1.54400
O614        O  0.38929108  0.55548417  0.58711340    -0.80400
O615        O  0.47884756  0.55597690  0.48583449    -0.78700
O616        O  0.34233085  0.55544585  0.55016000    -0.82900
O617        O  0.35881845  0.00530879  0.48851128    -0.77700
O618        O  0.46548730  0.56520093  0.56574639    -0.79500
O619        O  0.42841395  0.57500170  0.43350389    -0.82200
C620        C  0.36634761  0.98228151  0.51248182     0.98500
C621        C  0.35658190  0.55501160  0.58245439     1.06000
O622        O  0.40769626  0.56145159  0.51023841    -1.11200
O623        O  0.40519200  0.63285440  0.48237367    -0.73700
O624        O  0.35234147  0.61127731  0.49138414    -0.77100
O625        O  0.37994112  0.99044303  0.54314652    -0.77800
C626        C  0.37277331  0.63676903  0.48562126     0.97400
O627        O  0.37456272  0.55462844  0.43738204    -0.75800
O628        O  0.45722388  0.61394316  0.53504498    -0.81000
C629        C  0.47980110  0.52382094  0.49393913     1.00100
C630        C  0.47533213  0.59541188  0.55649702     1.06000
O631        O  0.45779905  0.50891442  0.51505145    -0.76600
C632        C  0.40255570  0.56020166  0.41923387     1.04300
Fe633      Fe  0.20390288  0.77300148  0.73624822     1.65800
Fe634      Fe  0.24555319  0.69611184  0.72441088     1.73200
Fe635      Fe  0.18877857  0.70582948  0.79604543     1.54400
O636        O  0.19376662  0.75027028  0.82733470    -0.80400
O637        O  0.20792014  0.66165819  0.71323048    -0.78700
O638        O  0.21086592  0.79403766  0.79008086    -0.82900
O639        O  0.15026562  0.77178486  0.74561966    -0.77700
O640        O  0.23213913  0.68382757  0.81960087    -0.79500
O641        O  0.23542677  0.71799715  0.67249942    -0.82200
C642        C  0.13060859  0.74937214  0.76079641     0.98500
C643        C  0.20130181  0.78205809  0.82192087     1.06000
O644        O  0.21317256  0.72541866  0.75320536    -1.11200
O645        O  0.28431271  0.73012601  0.73490708    -0.73700
O646        O  0.25706501  0.78026979  0.72259535    -0.77100
O647        O  0.14208645  0.72319017  0.77807119    -0.77800
C648        C  0.28470792  0.76208339  0.72619718     0.97400
O649        O  0.19216579  0.75406199  0.68345420    -0.75800
O650        O  0.25987609  0.66548525  0.76897171    -0.81000
C651        C  0.18549716  0.64935515  0.73522902     1.00100
C652        C  0.25200884  0.66246531  0.80310058     1.06000
O653        O  0.17961363  0.66062632  0.76794677    -0.76600
C654        C  0.20747079  0.73224551  0.66247412     1.04300
Fe655      Fe  0.45873413  0.77867155  0.72720394     1.65800
Fe656      Fe  0.49310484  0.69765195  0.72586178     1.73200
Fe657      Fe  0.42610899  0.71730968  0.67031077     1.54400
O658        O  0.38662480  0.75055839  0.68893299    -0.80400
O659        O  0.50937985  0.68731372  0.67258246    -0.78700
O660        O  0.40702678  0.77436071  0.74038666    -0.82900
O661        O  0.44763670  0.79990157  0.67358660    -0.77700
O662        O  0.40871963  0.68052729  0.70646199    -0.79500
O663        O  0.02988336  0.72770185  0.73801261    -0.82200
C664        C  0.44234812  0.78779196  0.64071236     0.98500
C665        C  0.38202253  0.76496862  0.72040745     1.06000
O666        O  0.45992330  0.73167758  0.70728590    -1.11200
O667        O  0.47690341  0.70430575  0.77975880    -0.73700
O668        O  0.46641630  0.76130519  0.78272938    -0.77100
O669        O  0.44165124  0.75526611  0.63370558    -0.77800
C670        C  0.46772167  0.73106112  0.79780339     0.97400
O671        O  0.51160300  0.78653281  0.71761401    -0.75800
O672        O  0.45905111  0.65737309  0.72383079    -0.81000
C673        C  0.48945794  0.66865197  0.65327768     1.00100
C674        C  0.42664683  0.65627479  0.72067988     1.06000
O675        O  0.45848822  0.67836559  0.64719562    -0.76600
C676        C  0.03614043  0.75960180  0.73196700     1.04300
Fe677      Fe  0.11940465  0.80781347  0.98817415     1.65800
Fe678      Fe  0.19623106  0.85130544  0.98279876     1.73200
Fe679      Fe  0.18292846  0.79099582  0.04969918     1.54400
O680        O  0.14273584  0.80759868  0.08306302    -0.80400
O681        O  0.23918828  0.81989141  0.98720566    -0.78700
O682        O  0.09907546  0.80172412  0.04270534    -0.82900
O683        O  0.12754249  0.75378779  0.98506483    -0.77700
O684        O  0.21727179  0.82924733  0.06776621    -0.79500
O685        O  0.18961017  0.83021250  0.93051479    -0.82200
C686        C  0.13974584  0.73435837  0.01050770     0.98500
C687        C  0.11096647  0.80209397  0.07594947     1.06000
O688        O  0.16582781  0.81709307  0.00690734    -1.11200
O689        O  0.15726329  0.88667608  0.97566407    -0.73700
O690        O  0.10680386  0.86119033  0.98887021    -0.77100
O691        O  0.15508016  0.74674560  0.03848844    -0.77800
C692        C  0.12497135  0.88798944  0.98121078     0.97400
O693        O  0.13567029  0.81002576  0.93217298    -0.75800
O694        O  0.20669043  0.87517881  0.03264364    -0.81000
C695        C  0.24316236  0.78845885  0.99695256     1.00100
C696        C  0.22388943  0.86022229  0.05781044     1.06000
O697        O  0.22173731  0.77204150  0.01725630    -0.76600
C698        C  0.16415446  0.81571603  0.91502359     1.04300
Fe699      Fe  0.11914974  0.55767882  0.98041290     1.65800
Fe700      Fe  0.19994816  0.59204106  0.98589094     1.73200
Fe701      Fe  0.18319175  0.52970120  0.92351321     1.54400
O702        O  0.14072562  0.98839135  0.95752527    -0.80400
O703        O  0.21426983  0.61170475  0.93487647    -0.78700
O704        O  0.11768785  0.00979771  0.00933264    -0.82900
O705        O  0.10161950  0.55309959  0.92489810    -0.77700
O706        O  0.21118787  0.00523568  0.97634351    -0.79500
O707        O  0.16523272  0.63166331  0.99079609    -0.82200
C708        C  0.11569650  0.55128789  0.89242538     0.98500
C709        C  0.12475575  0.98431847  0.98818432     1.06000
O710        O  0.16695725  0.56025280  0.96322357    -1.11200
O711        O  0.18937908  0.57391560  0.03833457    -0.73700
O712        O  0.13365324  0.55919623  0.03704504    -0.77100
O713        O  0.14831357  0.55053087  0.88704506    -0.77800
C714        C  0.16247928  0.56211546  0.05401566     0.97400
O715        O  0.11276285  0.61237099  0.97695316    -0.75800
O716        O  0.23901018  0.55604001  0.98424773    -0.81000
C717        C  0.23235862  0.59279710  0.91348537     1.00100
C718        C  0.23932151  0.52349527  0.97906184     1.06000
O719        O  0.22352006  0.56186419  0.90626423    -0.76600
C720        C  0.13356143  0.63706996  0.98448116     1.04300
Fe721      Fe  0.16873095  0.67416520  0.48456126     1.65800
Fe722      Fe  0.09022177  0.63807748  0.48030597     1.73200
Fe723      Fe  0.10699210  0.69797393  0.54596851     1.54400
O724        O  0.14618488  0.68100898  0.57936721    -0.80400
O725        O  0.04767248  0.66924301  0.48982362    -0.78700
O726        O  0.18987102  0.68403920  0.53842715    -0.82900
O727        O  0.16121476  0.72707808  0.47631114    -0.77700
O728        O  0.07211521  0.65912301  0.56530673    -0.79500
O729        O  0.09509349  0.66213504  0.42995956    -0.82200
C730        C  0.14989944  0.74983920  0.49901808     0.98500
C731        C  0.17795829  0.68586543  0.57190006     1.06000
O732        O  0.12230508  0.66988016  0.50391871    -1.11200
O733        O  0.12774375  0.60261819  0.46642878    -0.73700
O734        O  0.17709258  0.62013942  0.49130754    -0.77100
O735        O  0.13670995  0.74157456  0.53046180    -0.77800
C736        C  0.15784792  0.59618366  0.47822655     0.97400
O737        O  0.15227571  0.66866295  0.42827986    -0.75800
O738        O  0.08352266  0.61307172  0.53001995    -0.81000
C739        C  0.04524662  0.70106375  0.49838613     1.00100
C740        C  0.06632595  0.62760334  0.55571754     1.06000
O741        O  0.06886879  0.71766696  0.51457112    -0.76600
C742        C  0.12251395  0.67017184  0.41273761     1.04300
Fe743      Fe  0.15289233  0.93081454  0.48980160     1.65800
Fe744      Fe  0.07587587  0.88959318  0.50386463     1.73200
Fe745      Fe  0.08626102  0.94399091  0.43139022     1.54400
O746        O  0.13298936  0.48655688  0.42541800    -0.80400
O747        O  0.04765746  0.87246269  0.45804664    -0.78700
O748        O  0.15993127  0.48117704  0.47963443    -0.82900
O749        O  0.17390203  0.92420625  0.43592233    -0.77700
O750        O  0.03801778  0.94713330  0.45537424    -0.79500
O751        O  0.10999625  0.84961013  0.49574647    -0.82200
C752        C  0.16299680  0.93672822  0.40518588     0.98500
C753        C  0.14930319  0.49966929  0.45260550     1.06000
O754        O  0.10573659  0.92106606  0.47460448    -1.11200
O755        O  0.09670443  0.90105474  0.55536416    -0.73700
O756        O  0.13626444  0.94115824  0.54365116    -0.77100
O757        O  0.13176638  0.94579133  0.40090869    -0.77800
C758        C  0.11482467  0.92660572  0.56547053     0.97400
O759        O  0.16106921  0.87679192  0.50151401    -0.75800
O760        O  0.04263981  0.92942703  0.51385723    -0.81000
C761        C  0.05463630  0.87315529  0.42349062     1.00100
C762        C  0.03056140  0.94976626  0.48966088     1.06000
O763        O  0.07426037  0.89611540  0.40902356    -0.76600
C764        C  0.14253661  0.84904067  0.50025018     1.04300
Fe765      Fe  0.32275354  0.96351826  0.74819489     1.65800
Fe766      Fe  0.29272239  0.54899686  0.74236229     1.73200
Fe767      Fe  0.36248804  0.52961246  0.79424525     1.54400
O768        O  0.34172798  0.99104061  0.84012402    -0.80400
O769        O  0.32747585  0.58886047  0.74188686    -0.78700
O770        O  0.33468520  0.94471194  0.80273909    -0.82900
O771        O  0.37432099  0.96712410  0.73325207    -0.77700
O772        O  0.33176543  0.56894891  0.81815180    -0.79500
O773        O  0.30681529  0.54136474  0.68806939    -0.82200
C774        C  0.39972447  0.97679096  0.75249801     0.98500
C775        C  0.34037435  0.95834402  0.83489067     1.06000
O776        O  0.32647264  0.51483430  0.75979815    -1.11200
O777        O  0.25304462  0.51389785  0.73881439    -0.73700
O778        O  0.26997833  0.95662948  0.76002979    -0.77100
O779        O  0.40096728  0.49572973  0.77513244    -0.77800
C780        C  0.24484194  0.97703722  0.75300882     0.97400
O781        O  0.31425086  0.97885841  0.69207351    -0.75800
O782        O  0.27930484  0.56011753  0.79646839    -0.81000
C783        C  0.36004797  0.58933869  0.74252855     1.00100
C784        C  0.30057929  0.57871047  0.81419429     1.06000
O785        O  0.37833578  0.56491557  0.75580182    -0.76600
C786        C  0.31277565  0.00864645  0.67597131     1.04300
Fe787      Fe  0.07623841  0.96159027  0.74883747     1.65800
Fe788      Fe  0.04466472  0.54938377  0.73678209     1.73200
Fe789      Fe  0.10286711  0.53032573  0.67013965     1.54400
O790        O  0.13778861  0.99132359  0.69586661    -0.80400
O791        O  0.02184124  0.56323611  0.68725208    -0.78700
O792        O  0.13033731  0.96685754  0.75092101    -0.82900
O793        O  0.07944290  0.94141629  0.69363679    -0.77700
O794        O  0.12629249  0.56483713  0.70347480    -0.79500
O795        O  0.99929245  0.00482632  0.76013898    -0.82200
C796        C  0.07859850  0.95445924  0.66063237     0.98500
C797        C  0.14990298  0.97696119  0.72452263     1.06000
O798        O  0.07500126  0.51558802  0.71251758    -1.11200
O799        O  0.06578407  0.54012845  0.78781951    -0.73700
O800        O  0.07650706  0.97805148  0.80458828    -0.77100
O801        O  0.07540828  0.98694579  0.65448945    -0.77800
C802        C  0.07171034  0.00705221  0.82119875     0.97400
O803        O  0.02257332  0.95217922  0.75045515    -0.75800
O804        O  0.08029497  0.58870998  0.73175294    -0.81000
C805        C  0.03930088  0.58019229  0.66352142     1.00100
C806        C  0.11206337  0.58841031  0.72293353     1.06000
O807        O  0.06937951  0.57030382  0.65393821    -0.76600
C808        C  0.99668869  0.97212580  0.75688887     1.04300
Fe809      Fe  0.08049499  0.71326620  0.23599332     1.65800
Fe810      Fe  0.03983175  0.79063596  0.22292214     1.73200
Fe811      Fe  0.09631788  0.78136977  0.29325824     1.54400
O812        O  0.09358803  0.73699642  0.32529397    -0.80400
O813        O  0.07801396  0.82415949  0.20915659    -0.78700
O814        O  0.07331128  0.69346867  0.29028160    -0.82900
O815        O  0.13417113  0.71439936  0.24488811    -0.77700
O816        O  0.05184305  0.80121956  0.31674910    -0.79500
O817        O  0.04902337  0.76655559  0.17210410    -0.82200
C818        C  0.15405351  0.73757044  0.25807026     0.98500
C819        C  0.08498567  0.70540006  0.32105062     1.06000
O820        O  0.07196884  0.76129714  0.25151528    -1.11200
O821        O  0.00084179  0.75750757  0.23604005    -0.73700
O822        O  0.02710587  0.70673250  0.22349158    -0.77100
O823        O  0.14291725  0.76498874  0.27353522    -0.77800
C824        C  0.99980543  0.72546656  0.22770153     0.97400
O825        O  0.09241304  0.73073251  0.18274305    -0.75800
O826        O  0.02710503  0.82339097  0.26680930    -0.81000
C827        C  0.09892042  0.83768830  0.23169061     1.00100
C828        C  0.03569910  0.82564978  0.30066699     1.06000
O829        O  0.10358121  0.82688238  0.26476713    -0.76600
C830        C  0.07715756  0.75247483  0.16195888     1.04300
Fe831      Fe  0.32639414  0.71280129  0.23018259     1.65800
Fe832      Fe  0.29344288  0.79430840  0.23401157     1.73200
Fe833      Fe  0.36125344  0.77701531  0.17792071     1.54400
O834        O  0.39989005  0.74198240  0.19370020    -0.80400
O835        O  0.27824035  0.80732628  0.18128966    -0.78700
O836        O  0.37832080  0.71460690  0.24282801    -0.82900
O837        O  0.33679984  0.69517621  0.17476398    -0.77700
O838        O  0.37842711  0.81060662  0.21708678    -0.79500
O839        O  0.25450423  0.75919427  0.23740161    -0.82200
C840        C  0.34325451  0.70945008  0.14296704     0.98500
C841        C  0.40379444  0.72492770  0.22364500     1.06000
O842        O  0.32640961  0.76083802  0.21349328    -1.11200
O843        O  0.30879908  0.78450647  0.28735292    -0.73700
O844        O  0.31949954  0.72739499  0.28678947    -0.77100
O845        O  0.34584301  0.74222608  0.13852924    -0.77800
C846        C  0.31831494  0.75687487  0.30352574     0.97400
O847        O  0.27308567  0.70654307  0.22133335    -0.75800
O848        O  0.32803926  0.83407158  0.23436525    -0.81000
C849        C  0.29864753  0.82687398  0.16328127     1.00100
C850        C  0.36054123  0.83454718  0.23212799     1.06000
O851        O  0.32989450  0.81773930  0.15754746    -0.76600
C852        C  0.24886318  0.72752823  0.23019716     1.04300
Fe853      Fe  0.42638979  0.68221456  0.97578525     1.65800
Fe854      Fe  0.34554792  0.64797237  0.98206896     1.73200
Fe855      Fe  0.36319475  0.71001901  0.91874900     1.54400
O856        O  0.39796168  0.74921471  0.92876004    -0.80400
O857        O  0.33258648  0.62829058  0.93104376    -0.78700
O858        O  0.42532568  0.73685100  0.98103287    -0.82900
O859        O  0.44479607  0.68728400  0.91978398    -0.77700
O860        O  0.32938515  0.73260170  0.95520574    -0.79500
O861        O  0.38009708  0.60799957  0.98802634    -0.82200
C862        C  0.43108214  0.68950161  0.88726704     0.98500
C863        C  0.41583914  0.75850053  0.95628507     1.06000
O864        O  0.37884995  0.67963358  0.95887239    -1.11200
O865        O  0.35517492  0.66607778  0.03444342    -0.73700
O866        O  0.41092236  0.68088733  0.03259826    -0.77100
O867        O  0.39850002  0.68920115  0.88217740    -0.77800
C868        C  0.38198214  0.67776024  0.04990944     0.97400
O869        O  0.43263097  0.62716468  0.97310426    -0.75800
O870        O  0.30655757  0.68440786  0.97998473    -0.81000
C871        C  0.31392160  0.64701293  0.91037197     1.00100
C872        C  0.30628097  0.71690788  0.97400729     1.06000
O873        O  0.32280225  0.67777893  0.90213062    -0.76600
C874        C  0.41190647  0.60252362  0.98189572     1.04300
Fe875      Fe  0.42421428  0.93072746  0.99991107     1.65800
Fe876      Fe  0.34750631  0.88884062  0.99280185     1.73200
Fe877      Fe  0.35993198  0.94673097  0.06114611     1.54400
O878        O  0.39861278  0.92726168  0.09390487    -0.80400
O879        O  0.30418673  0.91950390  0.00037524    -0.78700
O880        O  0.44317966  0.93667320  0.05490292    -0.82900
O881        O  0.42036977  0.48558171  0.98949385    -0.77700
O882        O  0.32412391  0.90813650  0.07674222    -0.79500
O883        O  0.35359479  0.91265736  0.94230840    -0.82200
C884        C  0.40721112  0.50591040  0.01391917     0.98500
C885        C  0.43043899  0.93352657  0.08784023     1.06000
O886        O  0.37749814  0.92200833  0.01773703    -1.11200
O887        O  0.38658775  0.85435984  0.98173775    -0.73700
O888        O  0.43595928  0.87693363  0.00201618    -0.77100
O889        O  0.39103151  0.49434464  0.04226439    -0.77800
C890        C  0.41803465  0.85122484  0.99068074     0.97400
O891        O  0.40891135  0.92885711  0.94329556    -0.75800
O892        O  0.33886117  0.86325457  0.04198449    -0.81000
C893        C  0.30041994  0.95097823  0.01010224     1.00100
C894        C  0.31885485  0.87726116  0.06549397     1.06000
O895        O  0.32247976  0.96752257  0.02902956    -0.76600
C896        C  0.37987490  0.92579122  0.92666486     1.04300
C897        C  0.42361261  0.56535674  0.98537994    -0.15100
C898        C  0.40696252  0.54463645  0.01025476    -0.30300
H899        H  0.44331097  0.55492179  0.96680820     0.13900
H900        H  0.38911629  0.55734219  0.02950694     0.14500
C901        C  0.42282489  0.79644936  0.95794919    -0.15100
C902        C  0.43226457  0.81525348  0.98785479    -0.30300
H903        H  0.41295018  0.81093243  0.93417740     0.13900
H904        H  0.44268606  0.80276424  0.01248285     0.14500
C905        C  0.34914395  0.68751719  0.10950258    -0.15100
C906        C  0.37843908  0.69097140  0.08875886    -0.30300
H907        H  0.32861805  0.67031721  0.10062017     0.13900
H908        H  0.39911797  0.70724260  0.09918999     0.14500
C909        C  0.21212709  0.71648780  0.23316028    -0.15100
C910        C  0.19197584  0.73448809  0.25726102    -0.30300
H911        H  0.20147272  0.69742128  0.21420463     0.13900
H912        H  0.20455638  0.75248557  0.27618008     0.14500
C913        C  0.46652533  0.71175656  0.21806290    -0.15100
C914        C  0.43891055  0.72079104  0.23890061    -0.30300
H915        H  0.96164480  0.69709394  0.19366334     0.13900
H916        H  0.44294936  0.73114999  0.26669015     0.14500
C917        C  0.43492584  0.97400758  0.73649195    -0.15100
C918        C  0.46269333  0.96644107  0.75719289    -0.30300
H919        H  0.43858832  0.98324076  0.70810815     0.13900
H920        H  0.95521599  0.94947521  0.79108977     0.14500
C921        C  0.20849697  0.96461288  0.75348803    -0.15100
C922        C  0.18812664  0.97506401  0.72537055    -0.30300
H923        H  0.19807486  0.95112474  0.77763380     0.13900
H924        H  0.20077420  0.98730700  0.70154739     0.14500
C925        C  0.34698032  0.93584199  0.86768994    -0.15100
C926        C  0.37571792  0.94043140  0.88854538    -0.30300
H927        H  0.32751475  0.91700283  0.87585746     0.13900
H928        H  0.39552354  0.95823802  0.87867207     0.14500
C929        C  0.10976869  0.94188074  0.60297766    -0.15100
C930        C  0.08516346  0.93205823  0.62778188    -0.30300
H931        H  0.12505129  0.96483846  0.60910403     0.13900
H932        H  0.07020268  0.90855554  0.62375244     0.14500
C933        C  0.11930201  0.68405014  0.37415922    -0.15100
C934        C  0.08978497  0.68235557  0.35390479    -0.30300
H935        H  0.14084451  0.69920588  0.36343756     0.13900
H936        H  0.06855731  0.66587106  0.36280527     0.14500
C937        C  0.16856247  0.55884551  0.47690499    -0.15100
C938        C  0.15302604  0.53805567  0.45168465    -0.30300
H939        H  0.18474641  0.54806216  0.49863513     0.13900
H940        H  0.13853092  0.55052906  0.42948439     0.14500
C941        C  0.15811375  0.81416813  0.50678936    -0.15100
C942        C  0.14789893  0.78659309  0.48648294    -0.30300
H943        H  0.17391722  0.81031652  0.53131806     0.13900
H944        H  0.13366050  0.79124637  0.46096653     0.14500
C945        C  0.09351769  0.54757926  0.85946969    -0.15100
C946        C  0.09164547  0.51665351  0.84158648    -0.30300
H947        H  0.08105400  0.57064922  0.84833665     0.13900
H948        H  0.10314455  0.99085655  0.86910658     0.14500
C949        C  0.26785681  0.60344767  0.90367487    -0.15100
C950        C  0.27782563  0.63673180  0.90365808    -0.30300
H951        H  0.28728478  0.58305783  0.90156726     0.13900
H952        H  0.25839140  0.65719744  0.90383621     0.14500
C953        C  0.26800709  0.50463342  0.99499332    -0.15100
C954        C  0.26917671  0.96871727  0.99873921    -0.30300
H955        H  0.28793756  0.51973948  0.00866021     0.13900
H956        H  0.24931426  0.95385423  0.98468944     0.14500
C957        C  0.10923920  0.92276927  0.97675262    -0.15100
C958        C  0.11731143  0.94833748  0.00082284    -0.30300
H959        H  0.10136598  0.92975956  0.94873351     0.13900
H960        H  0.12532850  0.94152410  0.02885870     0.14500
C961        C  0.13999522  0.69582327  0.00861854    -0.15100
C962        C  0.12218877  0.67425970  0.98613025    -0.30300
H963        H  0.15837720  0.68399101  0.02765491     0.13900
H964        H  0.10181261  0.68391643  0.96824387     0.14500
C965        C  0.09412264  0.76226085  0.12617195    -0.15100
C966        C  0.08783457  0.79212469  0.10733607    -0.30300
H967        H  0.11579448  0.74616558  0.11722085     0.13900
H968        H  0.06641412  0.80897154  0.11510725     0.14500
C969        C  0.27730505  0.73628967  0.98917499    -0.15100
C970        C  0.27379158  0.77038398  0.98353167    -0.30300
H971        H  0.25790170  0.72177870  0.00471664     0.13900
H972        H  0.29288544  0.78489768  0.96757242     0.14500
C973        C  0.25549280  0.87764389  0.07117508    -0.15100
C974        C  0.28558008  0.85976410  0.07332942    -0.30300
H975        H  0.25624015  0.90585583  0.06941308     0.13900
H976        H  0.28511965  0.83160069  0.07075363     0.12900
C977        C  0.45332875  0.69459384  0.85382568    -0.15100
C978        C  0.45559461  0.72628091  0.83709490    -0.30300
H979        H  0.46398577  0.67164705  0.84033660     0.13900
H980        H  0.44425503  0.74870593  0.85104153     0.14500
C981        C  0.02864357  0.61598912  0.65331681    -0.15100
C982        C  0.99576435  0.62710713  0.65345482    -0.30300
H983        H  0.04917974  0.63500984  0.65029913     0.13900
H984        H  0.47735790  0.61276861  0.64694391     0.14500
C985        C  0.37657598  0.62015964  0.72833068    -0.15100
C986        C  0.41003755  0.62507725  0.73367172    -0.30300
H987        H  0.36075816  0.63959199  0.71443745     0.13900
H988        H  0.42577600  0.60571663  0.74779532     0.14500
C989        C  0.19048335  0.72235797  0.62673727    -0.15100
C990        C  0.20087828  0.69662564  0.60319566    -0.30300
H991        H  0.16598207  0.73516343  0.62114167     0.13900
H992        H  0.22580955  0.68409469  0.60664935     0.14500
C993        C  0.09258948  0.75152943  0.75933698    -0.15100
C994        C  0.07289070  0.77023766  0.73571453    -0.30300
H995        H  0.07970280  0.73271370  0.77731741     0.13900
H996        H  0.08389554  0.79023817  0.71791575     0.14500
C997        C  0.34679218  0.76703936  0.73627176    -0.15100
C998        C  0.31891091  0.77674847  0.71666909    -0.30300
H999        H  0.34313943  0.75542136  0.76364214     0.13900
H1000       H  0.32201517  0.78998159  0.69011113     0.14500
C1001       C  0.19689616  0.80536292  0.85472906    -0.15100
C1002       C  0.16817550  0.80206816  0.87643329    -0.30300
H1003       H  0.21745966  0.82307597  0.86225258     0.13900
H1004       H  0.14757735  0.78523971  0.86679329     0.14500
C1005       C  0.29315939  0.61625124  0.81936602    -0.15100
C1006       C  0.26100954  0.62914041  0.82099449    -0.30300
H1007       H  0.31441912  0.63404178  0.81415798     0.13900
H1008       H  0.23966585  0.61176884  0.82722716     0.14500
C1009       C  0.13309767  0.61667883  0.73577366    -0.15100
C1010       C  0.16484945  0.62103785  0.72205071    -0.30300
H1011       H  0.12225069  0.63444034  0.75637825     0.13900
H1012       H  0.17502475  0.60483699  0.69968015     0.14500
C1013       C  0.33470213  0.55135087  0.61623300    -0.15100
C1014       C  0.32794972  0.51942091  0.63082815    -0.30300
H1015       H  0.32906527  0.57468835  0.63219808     0.13900
H1016       H  0.33736445  0.99013484  0.62359628     0.14500
C1017       C  0.51165066  0.60521583  0.56435104    -0.15100
C1018       C  0.03528026  0.60876389  0.56904973    -0.30300
H1019       H  0.53032819  0.58412526  0.56610244     0.13900
H1020       H  0.03625830  0.58051763  0.56807743     0.14500
C1021       C  0.50839821  0.50393662  0.47836405    -0.15100
C1022       C  0.00823141  0.97779551  0.50190495    -0.30300
H1023       H  0.52755569  0.51809911  0.46211847     0.13900
H1024       H  0.99508037  0.97517514  0.52863525     0.14500
C1025       C  0.40510255  0.80751708  0.58975107    -0.15100
C1026       C  0.43449790  0.81196167  0.60936791    -0.30300
H1027       H  0.38702139  0.78783287  0.59944686     0.13900
H1028       H  0.45328942  0.83145445  0.60116325     0.14500
C1029       C  0.36052747  0.94468664  0.50560746    -0.15100
C1030       C  0.36910978  0.92934779  0.47313914    -0.30300
H1031       H  0.35713148  0.92826868  0.53004689     0.13900
H1032       H  0.37708160  0.94562328  0.44986740     0.14500
C1033       C  0.37942973  0.69958638  0.49200878    -0.15100
C1034       C  0.35942187  0.67294064  0.48091829    -0.30300
H1035       H  0.40187057  0.69335215  0.50882261     0.13900
H1036       H  0.33704822  0.67754506  0.46352703     0.14500
C1037       C  0.33157836  0.75987842  0.34232741    -0.15100
C1038       C  0.33161455  0.79029016  0.36171345    -0.30300
H1039       H  0.34550428  0.73763993  0.35345587     0.13900
H1040       H  0.31656484  0.81233691  0.35198688     0.14500
C1041       C  0.51186490  0.76334487  0.50146072    -0.15100
C1042       C  0.01420079  0.71970992  0.48865553    -0.30300
H1043       H  0.52682922  0.77319313  0.52466540     0.13900
H1044       H  0.99846906  0.70991489  0.46602415     0.14500
C1045       C  0.50848757  0.83107203  0.38712049    -0.15100
C1046       C  0.04282406  0.84475757  0.39941594    -0.30300
H1047       H  0.50509663  0.81209707  0.36511062     0.13900
H1048       H  0.06220249  0.83595300  0.37953752     0.14500
C1049       C  0.18436121  0.97012132  0.35057397    -0.15100
C1050       C  0.18681436  0.94143109  0.37259519    -0.30300
H1051       H  0.18646361  0.48742717  0.35773126     0.13900
H1052       H  0.20545014  0.92112961  0.36607813     0.14500
C1053       C  0.19607080  0.54777669  0.11125805    -0.15100
C1054       C  0.16564466  0.54867954  0.09275535    -0.30300
H1055       H  0.21881791  0.56053977  0.09995702     0.13900
H1056       H  0.14345081  0.53533324  0.10467349     0.14500
C1057       C  0.28954769  0.86419886  0.15869717    -0.15100
C1058       C  0.25671160  0.87536798  0.15879956    -0.30300
H1059       H  0.31023382  0.88305776  0.16115193     0.13900
H1060       H  0.23622740  0.85660234  0.15434184     0.14500
C1061       C  0.14836417  0.87397199  0.23722804    -0.15100
C1062       C  0.11912667  0.86703475  0.21943540    -0.30300
H1063       H  0.15753234  0.85737821  0.25968028     0.13900
H1064       H  0.11091385  0.88202973  0.19536319     0.14500
C1065       C  0.45252866  0.93919073  0.12068611    -0.15100
C1066       C  0.45654332  0.97148978  0.13528709    -0.30300
H1067       H  0.45977612  0.91639338  0.13674290     0.13900
H1068       H  0.43845529  0.49359275  0.12010591     0.14500
C1069       C  0.34560824  0.49497007  0.23478981    -0.15100
C1070       C  0.31984547  0.51795709  0.24181160    -0.30300
H1071       H  0.33890245  0.47033537  0.22189457     0.13900
H1072       H  0.32499715  0.54283806  0.25486419     0.14500
C1073       C  0.07213461  0.52247866  0.24051754    -0.15100
C1074       C  0.09167722  0.50776652  0.21339552    -0.30300
H1075       H  0.08339376  0.53838465  0.26219602     0.13900
H1076       H  0.07809356  0.49364380  0.19170487     0.14500
C1077       C  0.40623310  0.54608291  0.38088086    -0.15100
C1078       C  0.43536662  0.54934511  0.35982731    -0.30300
H1079       H  0.38577573  0.52907465  0.37130913     0.13900
H1080       H  0.45556061  0.56729347  0.36788081     0.14500
C1081       C  0.00717790  0.87823651  0.32628037    -0.15100
C1082       C  0.03603317  0.86121540  0.31619903    -0.30300
H1083       H  0.98470540  0.86346380  0.33507061     0.13900
H1084       H  0.05786756  0.87673002  0.30685420     0.14500
C1085       C  0.37729365  0.86495075  0.24639238    -0.15100
C1086       C  0.41057057  0.87022943  0.23978113    -0.30300
H1087       H  0.36157035  0.88406359  0.26113313     0.13900
H1088       H  0.42630184  0.85116269  0.22498569     0.14500
Fe1089     Fe  0.95463855  0.02433965  0.24661870     1.65800
Fe1090     Fe  0.98985057  0.44524723  0.23883620     1.73200
Fe1091     Fe  0.91965926  0.46559763  0.28973712     1.54400
O1092       O  0.93523758  0.49991846  0.32879939    -0.80400
O1093       O  0.95378570  0.40657338  0.23693989    -0.78700
O1094       O  0.95719131  0.04260699  0.30148007    -0.82900
O1095       O  0.89998682  0.02107689  0.25074475    -0.77700
O1096       O  0.94818224  0.42454843  0.31258435    -0.79500
O1097       O  0.97813130  0.45408822  0.18452054    -0.82200
C1098       C  0.88045527  0.99596300  0.26065308     0.98500
C1099       C  0.94422190  0.02951097  0.33110355     1.06000
O1100       O  0.95656384  0.47992233  0.25585989    -1.11200
O1101       O  0.53389949  0.46811625  0.25251411    -0.73700
O1102       O  0.00920439  0.03241322  0.24051833    -0.77100
O1103       O  0.88279067  0.50160117  0.27244376    -0.77800
C1104       C  0.53594125  0.01180088  0.24539207     0.97400
O1105       O  0.94680041  0.00969788  0.19153242    -0.75800
O1106       O  0.00162338  0.43277890  0.29279206    -0.81000
C1107       C  0.92116102  0.40742552  0.23719641     1.00100
C1108       C  0.97951890  0.41489533  0.31050557     1.06000
O1109       O  0.90348371  0.43260250  0.24996755    -0.76600
C1110       C  0.96064104  0.98716643  0.17035813     1.04300
Fe1111     Fe  0.70420595  0.02254695  0.23361462     1.65800
Fe1112     Fe  0.73777436  0.44413480  0.23021399     1.73200
Fe1113     Fe  0.67591140  0.46406045  0.16841328     1.54400
O1114       O  0.63724672  0.50054521  0.17776133    -0.80400
O1115       O  0.75619380  0.43065077  0.17847578    -0.78700
O1116       O  0.65024259  0.01834007  0.23671194    -0.82900
O1117       O  0.70078298  0.04365558  0.17866985    -0.77700
O1118       O  0.65257584  0.43130372  0.20464992    -0.79500
O1119       O  0.77800564  0.47913516  0.23437376    -0.82200
C1120       C  0.70259227  0.03137374  0.14537757     0.98500
C1121       C  0.63034536  0.00888719  0.21063186     1.06000
O1122       O  0.70613012  0.47822696  0.20901572    -1.11200
O1123       O  0.72138340  0.45302295  0.28378907    -0.73700
O1124       O  0.70378357  0.00559944  0.28988902    -0.77100
O1125       O  0.69867466  0.49910263  0.13358496    -0.77800
C1126       C  0.70440509  0.97569970  0.30571235     0.97400
O1127       O  0.75848949  0.02982058  0.23310769    -0.75800
O1128       O  0.69969787  0.40627881  0.22916497    -0.81000
C1129       C  0.73695325  0.41212523  0.15846880     1.00100
C1130       C  0.66719406  0.40798698  0.22411166     1.06000
O1131       O  0.70645985  0.42190715  0.15131763    -0.76600
C1132       C  0.78237230  0.00837184  0.24213051     1.04300
Fe1133     Fe  0.85911671  0.30500782  0.47917066     1.65800
Fe1134     Fe  0.93933617  0.33708186  0.48680832     1.73200
Fe1135     Fe  0.91991451  0.28540829  0.41517314     1.54400
O1136       O  0.88532390  0.24433286  0.42332628    -0.80400
O1137       O  0.94818250  0.36483161  0.43940816    -0.78700
O1138       O  0.86306725  0.25069284  0.48019395    -0.82900
O1139       O  0.83893749  0.30270079  0.42429095    -0.77700
O1140       O  0.95482377  0.25763659  0.44395530    -0.79500
O1141       O  0.90445326  0.37497983  0.50173878    -0.82200
C1142       C  0.85151083  0.30744030  0.39150856     0.98500
C1143       C  0.87238132  0.23146251  0.45300758     1.06000
O1144       O  0.90595937  0.30895212  0.46084139    -1.11200
O1145       O  0.93217201  0.31154516  0.53593529    -0.73700
O1146       O  0.87506804  0.30385440  0.53579540    -0.77100
O1147       O  0.88355385  0.31212589  0.38559250    -0.77800
C1148       C  0.90444394  0.30274591  0.55211654     0.97400
O1149       O  0.85345930  0.35989277  0.47871368    -0.75800
O1150       O  0.97846278  0.30168986  0.47524009    -0.81000
C1151       C  0.96636392  0.35144313  0.41405593     1.00100
C1152       C  0.97822958  0.27024058  0.46407138     1.06000
O1153       O  0.95965055  0.32119833  0.40163092    -0.76600
C1154       C  0.87411198  0.38281231  0.49151703     1.04300
Fe1155     Fe  0.86335506  0.05593452  0.49804430     1.65800
Fe1156     Fe  0.93983964  0.09685190  0.48360086     1.73200
Fe1157     Fe  0.93093232  0.04131018  0.55581793     1.54400
O1158       O  0.88566981  0.03983118  0.58691283    -0.80400
O1159       O  0.97226195  0.05642042  0.47216102    -0.78700
O1160       O  0.84281229  0.06055987  0.55196888    -0.82900
O1161       O  0.87149591  0.49992443  0.49244255    -0.77700
O1162       O  0.94688874  0.08702383  0.58028641    -0.79500
O1163       O  0.91836865  0.08713833  0.43234463    -0.82200
C1164       C  0.88379138  0.48036429  0.51784637     0.98500
C1165       C  0.85413373  0.04785261  0.58239137     1.06000
O1166       O  0.91049597  0.06562365  0.51349278    -1.11200
O1167       O  0.90661872  0.13713331  0.49243562    -0.73700
O1168       O  0.85494496  0.11056890  0.48892717    -0.77100
O1169       O  0.89953794  0.49274386  0.54572943    -0.77800
C1170       C  0.87395387  0.13809003  0.48920259     0.97400
O1171       O  0.87975872  0.04641335  0.44384555    -0.75800
O1172       O  0.96899192  0.11117685  0.52903960    -0.81000
C1173       C  0.98486488  0.03558114  0.49560912     1.00100
C1174       C  0.96912046  0.10612131  0.56397196     1.06000
O1175       O  0.97832316  0.03760129  0.53015026    -0.76600
C1176       C  0.90145214  0.06085072  0.42231149     1.04300
Fe1177     Fe  0.70272957  0.27050487  0.74015950     1.65800
Fe1178     Fe  0.74238725  0.19064694  0.73788690     1.73200
Fe1179     Fe  0.68170586  0.20899052  0.80274086     1.54400
O1180       O  0.70273104  0.24636345  0.83568173    -0.80400
O1181       O  0.70742214  0.15106019  0.74146753    -0.78700
O1182       O  0.70024944  0.29123160  0.79516459    -0.82900
O1183       O  0.64861050  0.26620627  0.73860000    -0.77700
O1184       O  0.71472275  0.16964711  0.82026546    -0.79500
O1185       O  0.72379855  0.19887717  0.68471863    -0.82200
C1186       C  0.62886063  0.25681129  0.76507783     0.98500
C1187       C  0.70073548  0.27880706  0.82851002     1.06000
O1188       O  0.70975133  0.22385933  0.76034829    -1.11200
O1189       O  0.78043573  0.22708321  0.73198708    -0.73700
O1190       O  0.75629360  0.27985574  0.73720358    -0.77100
O1191       O  0.64073391  0.24220121  0.79375574    -0.77800
C1192       C  0.78251944  0.25995732  0.73270932     0.97400
O1193       O  0.70182286  0.25261539  0.68492861    -0.75800
O1194       O  0.76305387  0.17682959  0.78868707    -0.81000
C1195       C  0.67553709  0.15038862  0.74950766     1.00100
C1196       C  0.74469870  0.15943447  0.81127379     1.06000
O1197       O  0.66000622  0.17333426  0.76893909    -0.76600
C1198       C  0.70809745  0.22367075  0.66873149     1.04300
Fe1199     Fe  0.95722057  0.27105726  0.73418740     1.65800
Fe1200     Fe  0.99015580  0.18957371  0.73712637     1.73200
Fe1201     Fe  0.92111265  0.20749872  0.68377650     1.54400
O1202       O  0.88385749  0.24431256  0.69875566    -0.80400
O1203       O  0.00250807  0.17567333  0.68370201    -0.78700
O1204       O  0.90529179  0.26898182  0.74884967    -0.82900
O1205       O  0.94631750  0.28794024  0.67843212    -0.77700
O1206       O  0.90386160  0.17599055  0.72484412    -0.79500
O1207       O  0.52928304  0.22906291  0.74155112    -0.82200
C1208       C  0.94017583  0.27318002  0.64685176     0.98500
C1209       C  0.87974069  0.25966345  0.72963024     1.06000
O1210       O  0.95699651  0.22321761  0.71785647    -1.11200
O1211       O  0.97759829  0.20013523  0.79103718    -0.73700
O1212       O  0.96509802  0.25687232  0.79063792    -0.77100
O1213       O  0.93752884  0.24037894  0.64308973    -0.77800
C1214       C  0.96803288  0.22758994  0.80751200     0.97400
O1215       O  0.01048193  0.27700707  0.72388341    -0.75800
O1216       O  0.95400472  0.15116014  0.74061558    -0.81000
C1217       C  0.98108711  0.15553877  0.66840068     1.00100
C1218       C  0.92143755  0.15140478  0.73886625     1.06000
O1219       O  0.95001994  0.16510339  0.66370102    -0.76600
C1220       C  0.53392500  0.26123040  0.73563657     1.04300
Fe1221     Fe  0.61802387  0.31214984  0.99236630     1.65800
Fe1222     Fe  0.69473998  0.35385139  0.98296939     1.73200
Fe1223     Fe  0.68250308  0.29663974  0.05249526     1.54400
O1224       O  0.64365561  0.31520713  0.08588669    -0.80400
O1225       O  0.73846803  0.32400045  0.99033043    -0.78700
O1226       O  0.59914576  0.30698407  0.04728598    -0.82900
O1227       O  0.62608336  0.25806545  0.99003843    -0.77700
O1228       O  0.71656347  0.33610019  0.06747201    -0.79500
O1229       O  0.68857249  0.32869506  0.93349963    -0.82200
C1230       C  0.63870208  0.23903917  0.01568300     0.98500
C1231       C  0.61182799  0.30957154  0.07997042     1.06000
O1232       O  0.66478325  0.32101674  0.00923230    -1.11200
O1233       O  0.65552665  0.38792825  0.97159405    -0.73700
O1234       O  0.60653225  0.36598551  0.99431895    -0.77100
O1235       O  0.65413315  0.25196595  0.04343752    -0.77800
C1236       C  0.62441627  0.39149607  0.98211275     0.97400
O1237       O  0.63300201  0.31349763  0.93558841    -0.75800
O1238       O  0.70363662  0.38067528  0.03116905    -0.81000
C1239       C  0.74217962  0.29255804  0.00002003     1.00100
C1240       C  0.72196352  0.36693971  0.05616771     1.06000
O1241       O  0.72042950  0.27635335  0.02005463    -0.76600
C1242       C  0.66210460  0.31574583  0.91855519     1.04300
Fe1243     Fe  0.61741648  0.06257103  0.98236364     1.65800
Fe1244     Fe  0.69873079  0.09590206  0.98573871     1.73200
Fe1245     Fe  0.67861388  0.03607412  0.92163919     1.54400
O1246       O  0.64660868  0.49541778  0.92391060    -0.80400
O1247       O  0.71182805  0.11594861  0.93452775    -0.78700
O1248       O  0.61950388  0.50635984  0.97708818    -0.82900
O1249       O  0.59804967  0.05996792  0.92722475    -0.77700
O1250       O  0.71561991  0.51038873  0.95114012    -0.79500
O1251       O  0.66507821  0.13650620  0.99257594    -0.82200
C1252       C  0.61120007  0.06003140  0.89420543     0.98500
C1253       C  0.62858421  0.48543849  0.95133229     1.06000
O1254       O  0.66453629  0.06522309  0.96351408    -1.11200
O1255       O  0.68943468  0.07787732  0.03855879    -0.73700
O1256       O  0.63392887  0.06224203  0.03848407    -0.77100
O1257       O  0.64367830  0.06046750  0.88783501    -0.77800
C1258       C  0.66298806  0.06581555  0.05490164     0.97400
O1259       O  0.61184330  0.11748917  0.98129175    -0.75800
O1260       O  0.73619903  0.05805888  0.98197712    -0.81000
C1261       C  0.72981719  0.09706471  0.91309675     1.00100
C1262       C  0.73544866  0.02564897  0.97534767     1.06000
O1263       O  0.72010047  0.06671606  0.90486738    -0.76600
C1264       C  0.63309802  0.14202859  0.98812467     1.04300
Fe1265     Fe  0.66077424  0.17975935  0.49239100     1.65800
Fe1266     Fe  0.57892816  0.14828204  0.48998505     1.73200
Fe1267     Fe  0.60195491  0.20416233  0.55714511     1.54400
O1268       O  0.63910516  0.17995016  0.58806523    -0.80400
O1269       O  0.54095270  0.18398482  0.50018899    -0.78700
O1270       O  0.68289048  0.18183566  0.54669695    -0.82900
O1271       O  0.66018028  0.23454454  0.49069420    -0.77700
O1272       O  0.56251997  0.17061312  0.57479552    -0.79500
O1273       O  0.58553466  0.17107044  0.43858438    -0.82200
C1274       C  0.65239423  0.25477547  0.51756770     0.98500
C1275       C  0.67120944  0.18172198  0.58036788     1.06000
O1276       O  0.61423771  0.17717766  0.51301058    -1.11200
O1277       O  0.61208484  0.10914736  0.47672568    -0.73700
O1278       O  0.66546921  0.12462567  0.49184681    -0.77100
O1279       O  0.63652815  0.24388425  0.54628022    -0.77800
C1280       C  0.64350248  0.10169256  0.48184179     0.97400
O1281       O  0.64228205  0.18136428  0.43677586    -0.75800
O1282       O  0.56896771  0.12392764  0.53989027    -0.81000
C1283       C  0.54121304  0.21563538  0.50962458     1.00100
C1284       C  0.55235572  0.14083896  0.56436375     1.06000
O1285       O  0.56584444  0.22993942  0.52688576    -0.76600
C1286       C  0.61242202  0.18119462  0.42145291     1.04300
Fe1287     Fe  0.66671469  0.42856408  0.47656363     1.65800
Fe1288     Fe  0.58922711  0.38916167  0.48655357     1.73200
Fe1289     Fe  0.60166228  0.44666673  0.41777982     1.54400
O1290       O  0.60594398  0.99207489  0.43602122    -0.80400
O1291       O  0.58091497  0.36292030  0.43807834    -0.78700
O1292       O  0.65072579  0.98614741  0.47419280    -0.82900
O1293       O  0.68513839  0.43486407  0.42118142    -0.77700
O1294       O  0.56444535  0.46771114  0.45108112    -0.79500
O1295       O  0.62775826  0.35454788  0.49854808    -0.82200
C1296       C  0.67190931  0.43330414  0.38858743     0.98500
C1297       C  0.62970703  0.00493192  0.45591296     1.06000
O1298       O  0.61953414  0.42147500  0.46038290    -1.11200
O1299       O  0.59582308  0.41417223  0.53557334    -0.73700
O1300       O  0.65219610  0.42622958  0.53365769    -0.77100
O1301       O  0.63990010  0.42781504  0.38334099    -0.77800
C1302       C  0.62295186  0.42538068  0.55067175     0.97400
O1303       O  0.67652569  0.37429670  0.47326813    -0.75800
O1304       O  0.54574952  0.41970385  0.47943168    -0.81000
C1305       C  0.56119548  0.37686706  0.41458442     1.00100
C1306       C  0.54241208  0.45145929  0.47070594     1.06000
O1307       O  0.56625858  0.40779557  0.40315585    -0.76600
C1308       C  0.65827000  0.34958272  0.48677908     1.04300
Fe1309     Fe  0.83051605  0.46576899  0.74687287     1.65800
Fe1310     Fe  0.78915234  0.04204887  0.74122744     1.73200
Fe1311     Fe  0.85554717  0.02238478  0.79769750     1.54400
O1312       O  0.84386513  0.49456977  0.83455094    -0.80400
O1313       O  0.82460964  0.08089211  0.74175320    -0.78700
O1314       O  0.82404027  0.44916598  0.80200443    -0.82900
O1315       O  0.88502659  0.46706128  0.75434643    -0.77700
O1316       O  0.82469546  0.06293318  0.81875883    -0.79500
O1317       O  0.80496815  0.03327752  0.68764658    -0.82200
C1318       C  0.90510362  0.49070970  0.76656307     0.98500
C1319       C  0.83565093  0.46268924  0.83190242     1.06000
O1320       O  0.82161683  0.00775861  0.76100970    -1.11200
O1321       O  0.74955308  0.00749439  0.73719486    -0.73700
O1322       O  0.77579243  0.45960563  0.73739676    -0.77100
O1323       O  0.89425545  0.98721237  0.78227613    -0.77800
C1324       C  0.74903738  0.47976509  0.73915483     0.97400
O1325       O  0.84245749  0.47977713  0.69244433    -0.75800
O1326       O  0.77327357  0.05496686  0.79417141    -0.81000
C1327       C  0.85693431  0.08127072  0.74577182     1.00100
C1328       C  0.79392190  0.07315426  0.81318674     1.06000
O1329       O  0.87424494  0.05661682  0.75999174    -0.76600
C1330       C  0.82778385  0.50103319  0.67075936     1.04300
Fe1331     Fe  0.58153119  0.47085069  0.72776833     1.65800
Fe1332     Fe  0.53671898  0.05031667  0.73951559     1.73200
Fe1333     Fe  0.59708410  0.03148947  0.67489648     1.54400
O1334       O  0.64494281  0.49903821  0.67529739    -0.80400
O1335       O  0.51534301  0.06263587  0.68870536    -0.78700
O1336       O  0.63568236  0.47445078  0.72998394    -0.82900
O1337       O  0.58438145  0.45061800  0.67285629    -0.77700
O1338       O  0.61887888  0.06744212  0.70816568    -0.79500
O1339       O  0.50430827  0.51516491  0.73615826    -0.82200
C1340       C  0.58428211  0.46328089  0.63967196     0.98500
C1341       C  0.65610464  0.48379007  0.70405796     1.06000
O1342       O  0.56911747  0.01682403  0.71733638    -1.11200
O1343       O  0.55655612  0.04299651  0.79195944    -0.73700
O1344       O  0.58174826  0.48791487  0.78299100    -0.77100
O1345       O  0.58265943  0.49576106  0.63264090    -0.77800
C1346       C  0.57590738  0.51695671  0.79897833     0.97400
O1347       O  0.52785936  0.46214311  0.73051944    -0.75800
O1348       O  0.57120355  0.09031431  0.73428183    -0.81000
C1349       C  0.53347034  0.08019430  0.66604326     1.00100
C1350       C  0.60315832  0.09090913  0.72662445     1.06000
O1351       O  0.56364834  0.07043428  0.65719411    -0.76600
C1352       C  0.50190510  0.48226751  0.73575959     1.04300
Fe1353     Fe  0.57321124  0.22420819  0.24163824     1.65800
Fe1354     Fe  0.53250911  0.30333147  0.22980498     1.73200
Fe1355     Fe  0.58673291  0.29046175  0.30262325     1.54400
O1356       O  0.57274882  0.24941769  0.33587609    -0.80400
O1357       O  0.56236872  0.34681184  0.23550865    -0.78700
O1358       O  0.57397465  0.20405442  0.29677772    -0.82900
O1359       O  0.62680557  0.22959642  0.24308182    -0.77700
O1360       O  0.54321835  0.31871764  0.32021876    -0.79500
O1361       O  0.55885843  0.29427471  0.18178680    -0.82200
C1362       C  0.64573230  0.24568251  0.26602537     0.98500
C1363       C  0.57449006  0.21696199  0.32970243     1.06000
O1364       O  0.56361901  0.27227664  0.25847257    -1.11200
O1365       O  0.49802006  0.26418385  0.21912120    -0.73700
O1366       O  0.52023779  0.21324345  0.23729583    -0.77100
O1367       O  0.63330991  0.26609160  0.29055571    -0.77800
C1368       C  0.49545141  0.23179455  0.22490523     0.97400
O1369       O  0.57684543  0.23924684  0.18515013    -0.75800
O1370       O  0.50378877  0.31755721  0.27515487    -0.81000
C1371       C  0.59162983  0.35170026  0.24972116     1.00100
C1372       C  0.51346988  0.32615442  0.30740066     1.06000
O1373       O  0.60491214  0.33159250  0.27347135    -0.76600
C1374       C  0.57380509  0.26813181  0.16779003     1.04300
Fe1375     Fe  0.81875133  0.21961503  0.23541607     1.65800
Fe1376     Fe  0.78607238  0.30116032  0.23334731     1.73200
Fe1377     Fe  0.85181465  0.27931280  0.17647765     1.54400
O1378       O  0.89096620  0.24542715  0.19420290    -0.80400
O1379       O  0.76889382  0.30983366  0.18036931    -0.78700
O1380       O  0.87132642  0.22385699  0.24738601    -0.82900
O1381       O  0.82956333  0.19771776  0.18167149    -0.77700
O1382       O  0.87056308  0.31565890  0.21121984    -0.79500
O1383       O  0.74708857  0.26666057  0.24181146    -0.82200
C1384       C  0.83431528  0.20985918  0.14854727     0.98500
C1385       C  0.89624982  0.23325528  0.22655095     1.06000
O1386       O  0.81824156  0.26617925  0.21471596    -1.11200
O1387       O  0.80304576  0.29520341  0.28658979    -0.73700
O1388       O  0.81096407  0.23777981  0.29062035    -0.77100
O1389       O  0.83438077  0.24219693  0.14131070    -0.77800
C1390       C  0.81049843  0.26823497  0.30514006     0.97400
O1391       O  0.76492689  0.21317124  0.22753227    -0.75800
O1392       O  0.82086119  0.34066819  0.22833149    -0.81000
C1393       C  0.78863121  0.32758806  0.15959828     1.00100
C1394       C  0.85322423  0.34101454  0.22400205     1.06000
O1395       O  0.81975606  0.31815945  0.15373104    -0.76600
C1396       C  0.74099272  0.23478483  0.23631720     1.04300
Fe1397     Fe  0.92268378  0.18443703  0.98495871     1.65800
Fe1398     Fe  0.84142518  0.15038596  0.98778223     1.73200
Fe1399     Fe  0.86221673  0.21103538  0.92431914     1.54400
O1400       O  0.89746429  0.24956153  0.93420331    -0.80400
O1401       O  0.82917271  0.13048483  0.93652128    -0.78700
O1402       O  0.92155458  0.23943772  0.98879289    -0.82900
O1403       O  0.94317665  0.18836408  0.92993233    -0.77700
O1404       O  0.82756935  0.23499985  0.95879863    -0.79500
O1405       O  0.87534415  0.11036363  0.99422273    -0.82200
C1406       C  0.93062038  0.18891368  0.89685420     0.98500
C1407       C  0.91388460  0.26000973  0.96223353     1.06000
O1408       O  0.87582738  0.18156267  0.96591554    -1.11200
O1409       O  0.84980346  0.16770330  0.04082161    -0.73700
O1410       O  0.90527484  0.18349875  0.04104155    -0.77100
O1411       O  0.89828859  0.18810738  0.89037292    -0.77800
C1412       C  0.87605468  0.17927599  0.05743655     0.97400
O1413       O  0.92875971  0.12941941  0.98319415    -0.75800
O1414       O  0.80346853  0.18761312  0.98430548    -0.81000
C1415       C  0.81217203  0.14926462  0.91429823     1.00100
C1416       C  0.80391176  0.21998236  0.97751610     1.06000
O1417       O  0.82191059  0.17976285  0.90652215    -0.76600
C1418       C  0.90736418  0.10482016  0.98989781     1.04300
Fe1419     Fe  0.92163824  0.43509689  0.99421926     1.65800
Fe1420     Fe  0.84538186  0.39224027  0.98868630     1.73200
Fe1421     Fe  0.85711020  0.45274368  0.05427139     1.54400
O1422       O  0.89564933  0.43418085  0.08789309    -0.80400
O1423       O  0.80167818  0.42262490  0.99488704    -0.78700
O1424       O  0.94048447  0.44238009  0.04883571    -0.82900
O1425       O  0.91201782  0.98785114  0.99202319    -0.77700
O1426       O  0.82168731  0.41474793  0.07096910    -0.79500
O1427       O  0.85093303  0.41464591  0.93766600    -0.82200
C1428       C  0.89893667  0.00761570  0.01688351     0.98500
C1429       C  0.92765166  0.43952211  0.08171663     1.06000
O1430       O  0.87500303  0.42668670  0.01211427    -1.11200
O1431       O  0.88464359  0.35766608  0.97884046    -0.73700
O1432       O  0.93344432  0.38142178  0.99892967    -0.77100
O1433       O  0.88242599  0.99555705  0.04459953    -0.77800
C1434       C  0.91573339  0.35501822  0.98918249     0.97400
O1435       O  0.90605925  0.43162179  0.93782744    -0.75800
O1436       O  0.83756832  0.36857182  0.03891194    -0.81000
C1437       C  0.79834910  0.45483400  0.00144742     1.00100
C1438       C  0.81708213  0.38338672  0.06126646     1.06000
O1439       O  0.81987375  0.47217983  0.02042386    -0.76600
C1440       C  0.87679653  0.42820948  0.92172743     1.04300
C1441       C  0.91837411  0.06753071  0.99280219    -0.15100
C1442       C  0.89892629  0.04619482  0.01437843    -0.30300
H1443       H  0.93991418  0.05760893  0.97642091     0.13900
H1444       H  0.87935838  0.05828017  0.03209077     0.14500
C1445       C  0.92133367  0.29794375  0.96154684    -0.15100
C1446       C  0.92974024  0.31883060  0.99014823    -0.30300
H1447       H  0.91278531  0.31085544  0.93618143     0.13900
H1448       H  0.93887672  0.30812075  0.01628095     0.14500
C1449       C  0.84205462  0.18646276  0.11676371    -0.15100
C1450       C  0.87150303  0.19121361  0.09658726    -0.30300
H1451       H  0.82212504  0.16883774  0.10729632     0.13900
H1452       H  0.89128948  0.20830108  0.10754137     0.14500
C1453       C  0.70398933  0.22454882  0.24060218    -0.15100
C1454       C  0.68398446  0.24359557  0.26422148    -0.30300
H1455       H  0.69297440  0.20463231  0.22293314     0.13900
H1456       H  0.69682749  0.26185622  0.28260943     0.14500
C1457       C  0.95953414  0.21684656  0.23293202    -0.15100
C1458       C  0.93154177  0.23631609  0.24235867    -0.30300
H1459       H  0.45616077  0.21683716  0.18496379     0.13900
H1460       H  0.93541734  0.25921975  0.25952440     0.14500
C1461       C  0.94341383  0.48851290  0.76555600    -0.15100
C1462       C  0.96451290  0.46945798  0.74328168    -0.30300
H1463       H  0.95549272  0.50823011  0.78281408     0.13900
H1464       H  0.46453816  0.45415448  0.77133142     0.14500
C1465       C  0.71312748  0.46658885  0.73467287    -0.15100
C1466       C  0.69441735  0.48008402  0.70641090    -0.30300
H1467       H  0.70074540  0.45253185  0.75732151     0.13900
H1468       H  0.70863222  0.49374408  0.68461115     0.14500
C1469       C  0.84153852  0.44073132  0.86515000    -0.15100
C1470       C  0.87179652  0.44290349  0.88388915    -0.30300
H1471       H  0.82102599  0.42365704  0.87472712     0.13900
H1472       H  0.89245429  0.45890937  0.87255900     0.14500
C1473       C  0.61955904  0.43989713  0.58873218    -0.15100
C1474       C  0.58914037  0.43992245  0.60765586    -0.30300
H1475       H  0.64137995  0.45411190  0.59989214     0.13900
H1476       H  0.56690584  0.42585731  0.59736928     0.14500
C1477       C  0.60858471  0.19558358  0.38296953    -0.15100
C1478       C  0.57902849  0.19406887  0.36279985    -0.30300
H1479       H  0.63009771  0.21059919  0.37194888     0.13900
H1480       H  0.55726157  0.17871261  0.37247632     0.14500
C1481       C  0.65278723  0.06413575  0.47666995    -0.15100
C1482       C  0.63053584  0.04350560  0.45776339    -0.30300
H1483       H  0.67534207  0.05325418  0.49022222     0.13900
H1484       H  0.60920570  0.05588703  0.44327868     0.14500
C1485       C  0.67059172  0.31273933  0.48851320    -0.15100
C1486       C  0.65872321  0.29293398  0.51698047    -0.30300
H1487       H  0.68301964  0.30106442  0.46435333     0.13900
H1488       H  0.64767025  0.30659654  0.54083626     0.14500
C1489       C  0.58838981  0.05554392  0.86180437    -0.15100
C1490       C  0.58536666  0.02365596  0.84620310    -0.30300
H1491       H  0.57784393  0.07848064  0.84831201     0.13900
H1492       H  0.59912327  0.49948234  0.85168788     0.14500
C1493       C  0.76606462  0.10632538  0.90537402    -0.15100
C1494       C  0.77676462  0.13928926  0.90413053    -0.30300
H1495       H  0.78502998  0.08543414  0.90622370     0.13900
H1496       H  0.75783591  0.16005309  0.90134087     0.14500
C1497       C  0.76358267  0.00543506  0.99054185    -0.15100
C1498       C  0.76848126  0.47243916  0.98592326    -0.30300
H1499       H  0.78319178  0.01975811  0.00563280     0.13900
H1500       H  0.74826955  0.45707229  0.97312888     0.14500
C1501       C  0.61072268  0.42776630  0.98054063    -0.15100
C1502       C  0.62106970  0.44754948  0.95152276    -0.30300
H1503       H  0.59975519  0.43946219  0.00548680     0.13900
H1504       H  0.63119035  0.43382183  0.92722379     0.14500
C1505       C  0.63909621  0.20040617  0.01404576    -0.15100
C1506       C  0.62168130  0.17914246  0.99089299    -0.30300
H1507       H  0.65735591  0.18837196  0.03306837     0.13900
H1508       H  0.60155764  0.18914125  0.97288856     0.14500
C1509       C  0.58988287  0.27260636  0.13049801    -0.15100
C1510       C  0.58936594  0.30358615  0.11248552    -0.30300
H1511       H  0.60501279  0.25120985  0.11906842     0.13900
H1512       H  0.57470679  0.32549379  0.12339044     0.14500
C1513       C  0.77510215  0.23995541  0.99186296    -0.15100
C1514       C  0.77272299  0.27420895  0.98696440    -0.30300
H1515       H  0.75492588  0.22570693  0.00651366     0.13900
H1516       H  0.79256353  0.28854731  0.97192165     0.14500
C1517       C  0.75402167  0.38473487  0.06669272    -0.15100
C1518       C  0.78379499  0.36643697  0.06881119    -0.30300
H1519       H  0.75486040  0.41287205  0.06388352     0.13900
H1520       H  0.78309899  0.33820569  0.06731507     0.12900
C1521       C  0.95387800  0.19299516  0.86433683    -0.15100
C1522       C  0.95694070  0.22435403  0.84716270    -0.30300
H1523       H  0.96342282  0.16948912  0.85099079     0.13900
H1524       H  0.94610873  0.24729191  0.86060230     0.14500
C1525       C  0.52420777  0.11667234  0.65730516    -0.15100
C1526       C  0.49177517  0.12875721  0.65662225    -0.30300
H1527       H  0.54537717  0.13513578  0.65585467     0.13900
H1528       H  0.96787395  0.09971243  0.67167945     0.14500
C1529       C  0.87420377  0.11253696  0.73518631    -0.15100
C1530       C  0.90399042  0.12061504  0.75083135    -0.30300
H1531       H  0.86147961  0.12993921  0.71564820     0.13900
H1532       H  0.91685319  0.10314521  0.77017808     0.14500
C1533       C  0.69391120  0.21808840  0.63068305    -0.15100
C1534       C  0.69495498  0.18734562  0.61210649    -0.30300
H1535       H  0.67832367  0.23907069  0.61926971     0.13900
H1536       H  0.71002069  0.16560285  0.62251091     0.14500
C1537       C  0.59060058  0.25945838  0.76386497    -0.15100
C1538       C  0.57052274  0.27311201  0.73691124    -0.30300
H1539       H  0.57756141  0.24542535  0.78624856     0.13900
H1540       H  0.58133410  0.28879189  0.71456120     0.14500
C1541       C  0.84443171  0.26278647  0.74536021    -0.15100
C1542       C  0.81730529  0.27446735  0.72565703    -0.30300
H1543       H  0.83974145  0.24955469  0.77168509     0.13900
H1544       H  0.82158384  0.28852155  0.69977835     0.14500
C1545       C  0.69567085  0.30227564  0.86061008    -0.15100
C1546       C  0.66594194  0.30063382  0.88071657    -0.30300
H1547       H  0.71707675  0.31830534  0.86956588     0.13900
H1548       H  0.64486195  0.28473103  0.87053556     0.14500
C1549       C  0.78604287  0.11042315  0.82004098    -0.15100
C1550       C  0.75373838  0.12291267  0.82039626    -0.30300
H1551       H  0.80750854  0.12854944  0.81943353     0.13900
H1552       H  0.73242346  0.10471813  0.82292770     0.14500
C1553       C  0.62226044  0.12028906  0.73991897    -0.15100
C1554       C  0.65629689  0.12137041  0.73560213    -0.30300
H1555       H  0.60816531  0.14098770  0.75408334     0.13900
H1556       H  0.67038050  0.10071391  0.72135303     0.14500
C1557       C  0.83024746  0.04180958  0.61432365    -0.15100
C1558       C  0.82954394  0.01068647  0.63231948    -0.30300
H1559       H  0.81514318  0.06365116  0.62466741     0.13900
H1560       H  0.86766386  0.49508187  0.62715435     0.14500
C1561       C  0.00101559  0.11602672  0.58300519    -0.15100
C1562       C  0.51640964  0.13076572  0.57333259    -0.30300
H1563       H  0.01912722  0.09486813  0.58777640     0.13900
H1564       H  0.49750685  0.15167621  0.57510669     0.14500
C1565       C  0.00671323  0.00747202  0.48244443    -0.15100
C1566       C  0.51190666  0.46985958  0.48430103    -0.30300
H1567       H  0.01980862  0.01017299  0.45570057     0.13900
H1568       H  0.49288115  0.45557758  0.50058493     0.14500
C1569       C  0.90706866  0.28874185  0.59063711    -0.15100
C1570       C  0.93472521  0.29443630  0.61286505    -0.30300
H1571       H  0.88689103  0.27114716  0.60004155     0.13900
H1572       H  0.95405714  0.31359044  0.60519064     0.14500
C1573       C  0.88335737  0.44169496  0.51597358    -0.15100
C1574       C  0.86434974  0.42056388  0.49404223    -0.30300
H1575       H  0.90202009  0.42950637  0.53438884     0.13900
H1576       H  0.84401198  0.43107250  0.47665005     0.14500
C1577       C  0.87135117  0.19278751  0.45527311    -0.15100
C1578       C  0.85905999  0.17346726  0.48391076    -0.30300
H1579       H  0.88596592  0.17932002  0.43361420     0.13900
H1580       H  0.84394059  0.18526209  0.50616025     0.14500
C1581       C  0.82103961  0.27288484  0.34459229    -0.15100
C1582       C  0.82922866  0.30454804  0.35850158    -0.30300
H1583       H  0.82684442  0.24973180  0.36081057     0.13900
H1584       H  0.82627697  0.32762874  0.34133699     0.14500
C1585       C  0.00569246  0.24703468  0.47507440    -0.15100
C1586       C  0.51130164  0.23548663  0.49937936    -0.30300
H1587       H  0.00574482  0.22094164  0.46338405     0.13900
H1588       H  0.49031986  0.22116556  0.48657309     0.14500
C1589       C  0.99851659  0.36983896  0.40421892    -0.15100
C1590       C  0.52782409  0.35987460  0.40794400    -0.30300
H1591       H  0.99776711  0.39808754  0.40524564     0.13900
H1592       H  0.52731417  0.33162364  0.40705114     0.14500
C1593       C  0.69410959  0.47219061  0.33926050    -0.15100
C1594       C  0.69378143  0.44021948  0.35539157    -0.30300
H1595       H  0.67317983  0.99262778  0.35424851     0.13900
H1596       H  0.70590373  0.41817075  0.34160272     0.14500
C1597       C  0.69711792  0.05441068  0.11282136    -0.15100
C1598       C  0.66694977  0.05293713  0.09382309    -0.30300
H1599       H  0.71904555  0.06867053  0.10170679     0.13900
H1600       H  0.64561065  0.03821203  0.10567589     0.14500
C1601       C  0.77924850  0.36411393  0.15129926    -0.15100
C1602       C  0.74647480  0.37544479  0.15092932    -0.30300
H1603       H  0.80007933  0.38298300  0.15053871     0.13900
H1604       H  0.72564719  0.35660996  0.14987836     0.14500
C1605       C  0.64595027  0.38123378  0.24099286    -0.15100
C1606       C  0.61167907  0.38109458  0.23664696    -0.30300
H1607       H  0.65892056  0.36059629  0.25625749     0.13900
H1608       H  0.59871539  0.40109262  0.22045050     0.14500
C1609       C  0.95005163  0.44382151  0.11439292    -0.15100
C1610       C  0.95883276  0.47581119  0.12703463    -0.30300
H1611       H  0.95302254  0.42124493  0.13231267     0.13900
H1612       H  0.92451271  0.99772883  0.12439652     0.14500
C1613       C  0.84330132  0.99386742  0.25154617    -0.15100
C1614       C  0.81946742  0.01921966  0.24583296    -0.30300
H1615       H  0.83452847  0.96704945  0.25194181     0.13900
H1616       H  0.82675770  0.04644474  0.24520434     0.14500
C1617       C  0.57236933  0.02404914  0.24149422    -0.15100
C1618       C  0.59203838  0.00961358  0.21420210    -0.30300
H1619       H  0.58338689  0.04146211  0.26196172     0.13900
H1620       H  0.57886720  0.99398864  0.19344375     0.14500
C1621       C  0.90826813  0.04477280  0.38547352    -0.15100
C1622       C  0.93612854  0.05195479  0.36370762    -0.30300
H1623       H  0.89161723  0.02325197  0.37784799     0.13900
H1624       H  0.95275121  0.07383923  0.36994840     0.14500
C1625       C  0.47727210  0.37426037  0.33634661    -0.15100
C1626       C  0.48756858  0.34078375  0.33280414    -0.30300
H1627       H  0.45691899  0.37875256  0.35671661     0.13900
H1628       H  0.47552516  0.32181899  0.35099595     0.14500
C1629       C  0.87059391  0.37253937  0.23353583    -0.15100
C1630       C  0.90354297  0.37700832  0.22439686    -0.30300
H1631       H  0.85593973  0.39238002  0.24845020     0.13900
H1632       H  0.91830772  0.35707008  0.20977546     0.14500
Fe1633     Fe  0.95730114  0.52710718  0.23703250     1.65800
Fe1634     Fe  0.99561308  0.94692273  0.23119658     1.73200
Fe1635     Fe  0.93686132  0.95395306  0.30080502     1.54400
O1636       O  0.93655990  0.99754843  0.33392068    -0.80400
O1637       O  0.95819318  0.91271947  0.21744691    -0.78700
O1638       O  0.94513073  0.54626050  0.29174074    -0.82900
O1639       O  0.90546793  0.52388092  0.22139480    -0.77700
O1640       O  0.98000344  0.93394764  0.32639695    -0.79500
O1641       O  0.98686649  0.97005148  0.18034385    -0.82200
C1642       C  0.87933910  0.51461874  0.24034352     0.98500
C1643       C  0.93849305  0.53250751  0.32384078     1.06000
O1644       O  0.96297602  0.97562629  0.26041312    -1.11200
O1645       O  0.53144973  0.97961801  0.24022154    -0.73700
O1646       O  0.01057092  0.53328659  0.24798890    -0.77100
O1647       O  0.89168153  0.96937695  0.27753518    -0.77800
C1648       C  0.53740123  0.50061076  0.24704243     0.97400
O1649       O  0.96685517  0.51098321  0.18150715    -0.75800
O1650       O  0.00827071  0.91595103  0.27578201    -0.81000
C1651       C  0.93731270  0.89822712  0.23958884     1.00100
C1652       C  0.99980163  0.91250314  0.30975906     1.06000
O1653       O  0.93188970  0.90829430  0.27270089    -0.76600
C1654       C  0.96934636  0.48088333  0.16643295     1.04300
Fe1655     Fe  0.70165804  0.52482730  0.22896453     1.65800
Fe1656     Fe  0.73830932  0.94100868  0.23837946     1.73200
Fe1657     Fe  0.68298609  0.96179401  0.17033397     1.54400
O1658       O  0.64222988  0.99587242  0.18067006    -0.80400
O1659       O  0.76313809  0.92882697  0.18919653    -0.78700
O1660       O  0.64805807  0.52097652  0.23360967    -0.82900
O1661       O  0.69862299  0.54481970  0.17311768    -0.77700
O1662       O  0.65818928  0.92570487  0.20112559    -0.79500
O1663       O  0.77612817  0.97650902  0.24841640    -0.82200
C1664       C  0.69823190  0.53176778  0.13992404     0.98500
C1665       C  0.62692989  0.51352627  0.20814476     1.06000
O1666       O  0.70898890  0.97540866  0.21413614    -1.11200
O1667       O  0.71565183  0.94883312  0.28933843    -0.73700
O1668       O  0.70149776  0.50750527  0.28476075    -0.77100
O1669       O  0.70641857  0.99909919  0.13871123    -0.77800
C1670       C  0.70708426  0.47821207  0.30057410     0.97400
O1671       O  0.75542747  0.53263061  0.22967236    -0.75800
O1672       O  0.70289970  0.90188179  0.23113553    -0.81000
C1673       C  0.74697635  0.91215584  0.16457132     1.00100
C1674       C  0.67182358  0.90166918  0.22023848     1.06000
O1675       O  0.71741417  0.92226890  0.15379550    -0.76600
C1676       C  0.78112034  0.51203527  0.23378247     1.04300
Fe1677     Fe  0.86198853  0.80551893  0.48211281     1.65800
Fe1678     Fe  0.94242752  0.83841676  0.49488675     1.73200
Fe1679     Fe  0.92838126  0.78065286  0.42680159     1.54400
O1680       O  0.90703474  0.73579052  0.44569890    -0.80400
O1681       O  0.97981923  0.84357619  0.45241778    -0.78700
O1682       O  0.85839680  0.75062732  0.47560898    -0.82900
O1683       O  0.84365041  0.81169435  0.42756930    -0.77700
O1684       O  0.97159622  0.76851107  0.45736061    -0.79500
O1685       O  0.91475502  0.88062505  0.47806248    -0.82200
C1686       C  0.85511360  0.79835814  0.39723982     0.98500
C1687       C  0.87873862  0.72789697  0.46130649     1.06000
O1688       O  0.91034640  0.80816783  0.46735263    -1.11200
O1689       O  0.91475041  0.83735239  0.54432760    -0.73700
O1690       O  0.87716664  0.79528922  0.53640787    -0.77100
O1691       O  0.88587270  0.78729353  0.39346178    -0.77800
C1692       C  0.89870007  0.81117010  0.55659328     0.97400
O1693       O  0.86119560  0.86088037  0.49039752    -0.75800
O1694       O  0.96865774  0.79596056  0.51238823    -0.81000
C1695       C  0.97897120  0.83514758  0.41838821     1.00100
C1696       C  0.98041102  0.77236145  0.49123915     1.06000
O1697       O  0.95131800  0.82390220  0.40437199    -0.76600
C1698       C  0.88297296  0.88591401  0.48592733     1.04300
Fe1699     Fe  0.86451244  0.55414416  0.49623858     1.65800
Fe1700     Fe  0.94218726  0.59347375  0.48493408     1.73200
Fe1701     Fe  0.93020801  0.53605748  0.55441037     1.54400
O1702       O  0.89248279  0.55560276  0.58921716    -0.80400
O1703       O  0.98452135  0.56037193  0.48898573    -0.78700
O1704       O  0.84711465  0.54818287  0.55158916    -0.82900
O1705       O  0.86840133  0.00116793  0.50450597    -0.77700
O1706       O  0.96720999  0.57414549  0.56871195    -0.79500
O1707       O  0.93295508  0.57113375  0.43445622    -0.82200
C1708       C  0.89349627  0.98215007  0.51561921     0.98500
C1709       C  0.86046015  0.54972057  0.58403374     1.06000
O1710       O  0.91202496  0.56137745  0.51175085    -1.11200
O1711       O  0.90373560  0.62954651  0.47733749    -0.73700
O1712       O  0.85429751  0.60801856  0.49968701    -0.77100
O1713       O  0.91896758  0.99431515  0.53323081    -0.77800
C1714       C  0.87262469  0.63341257  0.48802978     0.97400
O1715       O  0.87731995  0.55679568  0.43894209    -0.75800
O1716       O  0.95399129  0.61895441  0.53312077    -0.81000
C1717       C  0.98690549  0.52856706  0.49837874     1.00100
C1718       C  0.97272997  0.60512570  0.55756766     1.06000
O1719       O  0.96595345  0.51389744  0.52055627    -0.76600
C1720       C  0.90539226  0.55997988  0.42020867     1.04300
Fe1721     Fe  0.70348692  0.77900786  0.73542920     1.65800
Fe1722     Fe  0.74248586  0.70101187  0.72318216     1.73200
Fe1723     Fe  0.68369638  0.71120044  0.79251679     1.54400
O1724       O  0.68760596  0.75512502  0.82483612    -0.80400
O1725       O  0.70390936  0.66853348  0.70910684    -0.78700
O1726       O  0.70961225  0.79841466  0.79012960    -0.82900
O1727       O  0.64963210  0.77959270  0.74351283    -0.77700
O1728       O  0.72589294  0.68887954  0.81765366    -0.79500
O1729       O  0.73549598  0.72485824  0.67178959    -0.82200
C1730       C  0.62863899  0.75732739  0.75679089     0.98500
C1731       C  0.69725604  0.78648367  0.82089619     1.06000
O1732       O  0.71025886  0.73085467  0.75134133    -1.11200
O1733       O  0.78217337  0.73302709  0.73652950    -0.73700
O1734       O  0.75740987  0.78429789  0.72360541    -0.77100
O1735       O  0.63837342  0.72956418  0.77238497    -0.77800
C1736       C  0.78422125  0.76496971  0.72802842     0.97400
O1737       O  0.69261155  0.76158111  0.68174405    -0.75800
O1738       O  0.75338718  0.66887430  0.76763719    -0.81000
C1739       C  0.68139254  0.65559842  0.73056293     1.00100
C1740       C  0.74476373  0.66638494  0.80162600     1.06000
O1741       O  0.67525804  0.66623448  0.76348619    -0.76600
C1742       C  0.70811152  0.73967791  0.66099968     1.04300
Fe1743     Fe  0.95910383  0.77550187  0.73270729     1.65800
Fe1744     Fe  0.99008571  0.69333582  0.73252406     1.73200
Fe1745     Fe  0.92549540  0.71535070  0.67542272     1.54400
O1746       O  0.88755846  0.75141421  0.69210983    -0.80400
O1747       O  0.00671820  0.68242484  0.67960497    -0.78700
O1748       O  0.90701675  0.77221937  0.74540772    -0.82900
O1749       O  0.94836068  0.79636731  0.67888698    -0.77700
O1750       O  0.90468260  0.68055714  0.71096576    -0.79500
O1751       O  0.53132619  0.73359256  0.73120795    -0.82200
C1752       C  0.94420266  0.78353045  0.64615403     0.98500
C1753       C  0.88227450  0.76436900  0.72421288     1.06000
O1754       O  0.95876345  0.72840048  0.71340509    -1.11200
O1755       O  0.97414684  0.70130084  0.78590443    -0.73700
O1756       O  0.96657758  0.75879335  0.78823289    -0.77100
O1757       O  0.94550537  0.75104368  0.63968659    -0.77800
C1758       C  0.96687771  0.72875024  0.80366359     0.97400
O1759       O  0.01245154  0.78130747  0.72353167    -0.75800
O1760       O  0.95327545  0.65493954  0.73052118    -0.81000
C1761       C  0.98673114  0.66413780  0.66012571     1.00100
C1762       C  0.92088560  0.65547786  0.72573801     1.06000
O1763       O  0.95594321  0.67419448  0.65405814    -0.76600
C1764       C  0.53615546  0.76574012  0.72541644     1.04300
Fe1765     Fe  0.61611820  0.81243843  0.98808781     1.65800
Fe1766     Fe  0.69277911  0.85456768  0.98144152     1.73200
Fe1767     Fe  0.67980416  0.79440154  0.04827248     1.54400
O1768       O  0.63986847  0.81036463  0.08203036    -0.80400
O1769       O  0.73658197  0.82445807  0.98753393    -0.78700
O1770       O  0.59635264  0.80306474  0.04216688    -0.82900
O1771       O  0.62513475  0.75864793  0.98176855    -0.77700
O1772       O  0.71311219  0.83354103  0.06640052    -0.79500
O1773       O  0.68713755  0.83168915  0.93030700    -0.82200
C1774       C  0.63810627  0.73848176  0.00625561     0.98500
C1775       C  0.60844337  0.80329060  0.07523394     1.06000
O1776       O  0.66269390  0.82059160  0.00593198    -1.11200
O1777       O  0.65322883  0.88905164  0.97184150    -0.73700
O1778       O  0.60468312  0.86597856  0.99455499    -0.77100
O1779       O  0.65220665  0.75012797  0.03546724    -0.77800
C1780       C  0.62249105  0.89215053  0.98389650     0.97400
O1781       O  0.63129783  0.81773935  0.93146038    -0.75800
O1782       O  0.70150631  0.87929146  0.03110455    -0.81000
C1783       C  0.74052819  0.79284991  0.99654223     1.00100
C1784       C  0.71891386  0.86473521  0.05640757     1.06000
O1785       O  0.71871225  0.77602242  0.01585438    -0.76600
C1786       C  0.66047119  0.82009004  0.91451619     1.04300
Fe1787     Fe  0.61888109  0.56118349  0.97327096     1.65800
Fe1788     Fe  0.69960939  0.59523983  0.97865825     1.73200
Fe1789     Fe  0.68227104  0.53410175  0.91511905     1.54400
O1790       O  0.64228092  0.99808350  0.93045704    -0.80400
O1791       O  0.71265591  0.61482022  0.92741084    -0.78700
O1792       O  0.61785238  0.00760267  0.98535026    -0.82900
O1793       O  0.60114989  0.55800057  0.91777346    -0.77700
O1794       O  0.71207929  0.01095484  0.95628108    -0.79500
O1795       O  0.66532207  0.63527684  0.98425736    -0.82200
C1796       C  0.61521787  0.55762424  0.88525236     0.98500
C1797       C  0.62539507  0.98740095  0.95837663     1.06000
O1798       O  0.66652310  0.56372087  0.95597947    -1.11200
O1799       O  0.68950292  0.57728390  0.03148264    -0.73700
O1800       O  0.63400520  0.56151959  0.02969572    -0.77100
O1801       O  0.64781751  0.55722507  0.87978388    -0.77800
C1802       C  0.66260886  0.56515485  0.04697857     0.97400
O1803       O  0.61264764  0.61606637  0.97139073    -0.75800
O1804       O  0.73822780  0.55856463  0.97602787    -0.81000
C1805       C  0.73181916  0.59621016  0.90695242     1.00100
C1806       C  0.73846517  0.52607254  0.97008152     1.06000
O1807       O  0.72329567  0.56548384  0.89881582    -0.76600
C1808       C  0.63352195  0.64077082  0.97876046     1.04300
Fe1809     Fe  0.66993583  0.67732759  0.48423447     1.65800
Fe1810     Fe  0.58872923  0.64587534  0.48342006     1.73200
Fe1811     Fe  0.61011257  0.70969050  0.54325899     1.54400
O1812       O  0.64644473  0.69032859  0.57846856    -0.80400
O1813       O  0.55028312  0.68230271  0.48782549    -0.78700
O1814       O  0.69100638  0.68766057  0.53832030    -0.82900
O1815       O  0.66656339  0.73000159  0.47311470    -0.77700
O1816       O  0.57016870  0.67767601  0.56424948    -0.79500
O1817       O  0.59606337  0.66415659  0.43044434    -0.82200
C1818       C  0.65820105  0.75452685  0.49492454     0.98500
C1819       C  0.67863212  0.69220412  0.57141973     1.06000
O1820       O  0.62327599  0.67704398  0.50397172    -1.11200
O1821       O  0.62308424  0.60572008  0.47584482    -0.73700
O1822       O  0.67558766  0.62317479  0.49241711    -0.77100
O1823       O  0.64475619  0.74869890  0.52673935    -0.77800
C1824       C  0.65441424  0.59921973  0.48341688     0.97400
O1825       O  0.65307104  0.67159098  0.42817699    -0.75800
O1826       O  0.57773313  0.62737895  0.53570452    -0.81000
C1827       C  0.55021980  0.71464278  0.49421742     1.00100
C1828       C  0.55995752  0.64700836  0.55670780     1.06000
O1829       O  0.57494777  0.73084480  0.50900989    -0.76600
C1830       C  0.62318709  0.67258073  0.41290352     1.04300
Fe1831     Fe  0.65595227  0.93219966  0.48123739     1.65800
Fe1832     Fe  0.57868293  0.88836865  0.49440255     1.73200
Fe1833     Fe  0.58953725  0.94331886  0.42004047     1.54400
O1834       O  0.63134706  0.49035368  0.42744766    -0.80400
O1835       O  0.55676479  0.86417874  0.44923543    -0.78700
O1836       O  0.65990187  0.48271785  0.48040018    -0.82900
O1837       O  0.67772135  0.92873627  0.42745895    -0.77700
O1838       O  0.54368260  0.95396851  0.44537854    -0.79500
O1839       O  0.61662601  0.85141205  0.49527455    -0.82200
C1840       C  0.66588683  0.93520084  0.39504376     0.98500
C1841       C  0.64730541  0.50243359  0.45533216     1.06000
O1842       O  0.60834646  0.92097926  0.46485858    -1.11200
O1843       O  0.59266474  0.90826121  0.54523003    -0.73700
O1844       O  0.63970063  0.94017678  0.53594005    -0.77100
O1845       O  0.63387478  0.93821926  0.38853339    -0.77800
C1846       C  0.61488046  0.92975330  0.55639487     0.97400
O1847       O  0.66726344  0.87932958  0.49149152    -0.75800
O1848       O  0.53833264  0.92156338  0.49664103    -0.81000
C1849       C  0.55538439  0.87043180  0.41472550     1.00100
C1850       C  0.52816663  0.94511386  0.47497175     1.06000
O1851       O  0.56978484  0.89679359  0.39965577    -0.76600
C1852       C  0.64932429  0.85172178  0.49573932     1.04300
Fe1853     Fe  0.82235051  0.96031231  0.74273217     1.65800
Fe1854     Fe  0.79179180  0.54294917  0.72802268     1.73200
Fe1855     Fe  0.84755647  0.53689334  0.79952709     1.54400
O1856       O  0.83807214  0.98711192  0.83544087    -0.80400
O1857       O  0.83149582  0.57381678  0.71213561    -0.78700
O1858       O  0.83182846  0.94090928  0.79763851    -0.82900
O1859       O  0.87504584  0.96242585  0.73097576    -0.77700
O1860       O  0.80378374  0.55977091  0.82172994    -0.79500
O1861       O  0.79945109  0.51501506  0.67982488    -0.82200
C1862       C  0.89967961  0.97123073  0.75193107     0.98500
C1863       C  0.83716233  0.95444847  0.82992877     1.06000
O1864       O  0.82274268  0.51467397  0.75923720    -1.11200
O1865       O  0.75130509  0.51250751  0.74265665    -0.73700
O1866       O  0.76850446  0.95424316  0.75085519    -0.77100
O1867       O  0.89385968  0.51844786  0.78120998    -0.77800
C1868       C  0.74410786  0.97556572  0.74342057     0.97400
O1869       O  0.81682753  0.97643812  0.68660722    -0.75800
O1870       O  0.78011735  0.57832887  0.76930118    -0.81000
C1871       C  0.85227576  0.58860862  0.73389190     1.00100
C1872       C  0.78705271  0.58236613  0.80338885     1.06000
O1873       O  0.85608888  0.58032435  0.76789909    -0.76600
C1874       C  0.81537098  0.00631451  0.67077191     1.04300
Fe1875     Fe  0.57583071  0.97019055  0.73772220     1.65800
Fe1876     Fe  0.54304044  0.55121331  0.73019043     1.73200
Fe1877     Fe  0.60396144  0.53271949  0.66583165     1.54400
O1878       O  0.63820700  0.99845307  0.68437291    -0.80400
O1879       O  0.52241259  0.56539552  0.67956280    -0.78700
O1880       O  0.62978913  0.97401282  0.73927534    -0.82900
O1881       O  0.57818387  0.94915502  0.68282505    -0.77700
O1882       O  0.62612754  0.56780738  0.69961295    -0.79500
O1883       O  0.49893963  0.01385809  0.74782872    -0.82200
C1884       C  0.57795696  0.96164912  0.64950479     0.98500
C1885       C  0.64970970  0.98329829  0.71295296     1.06000
O1886       O  0.57539406  0.51777407  0.70784886    -1.11200
O1887       O  0.56130765  0.54226294  0.78282910    -0.73700
O1888       O  0.57662360  0.98844051  0.79277144    -0.77100
O1889       O  0.57585981  0.99408125  0.64243226    -0.77800
C1890       C  0.57140810  0.01789812  0.80830536     0.97400
O1891       O  0.52254293  0.96100479  0.74110696    -0.75800
O1892       O  0.57902716  0.59041394  0.72734983    -0.81000
C1893       C  0.54079836  0.58296790  0.65725349     1.00100
C1894       C  0.61094225  0.59089771  0.71901386     1.06000
O1895       O  0.57098486  0.57282837  0.64855017    -0.76600
C1896       C  0.49676044  0.98098581  0.74734065     1.04300
Fe1897     Fe  0.58176615  0.71553662  0.23673337     1.65800
Fe1898     Fe  0.54038847  0.79123150  0.21870869     1.73200
Fe1899     Fe  0.59383245  0.78588785  0.29187760     1.54400
O1900       O  0.59060229  0.74249493  0.32622750    -0.80400
O1901       O  0.57977992  0.82299366  0.20382575    -0.78700
O1902       O  0.57401675  0.69714324  0.29143303    -0.82900
O1903       O  0.63510689  0.71862701  0.24688582    -0.77700
O1904       O  0.54794327  0.80635023  0.31163164    -0.79500
O1905       O  0.54945125  0.76331438  0.17058278    -0.82200
C1906       C  0.65381789  0.74261037  0.26044208     0.98500
C1907       C  0.58391291  0.71027310  0.32237930     1.06000
O1908       O  0.57165537  0.76365808  0.25015761    -1.11200
O1909       O  0.50123112  0.75889789  0.23358604    -0.73700
O1910       O  0.52844568  0.70796790  0.22349110    -0.77100
O1911       O  0.64141978  0.76961364  0.27552720    -0.77800
C1912       C  0.50077543  0.72650038  0.22662007     0.97400
O1913       O  0.59497964  0.73161871  0.18327981    -0.75800
O1914       O  0.52698245  0.82710407  0.25915444    -0.81000
C1915       C  0.59987272  0.83781138  0.22639787     1.00100
C1916       C  0.53227696  0.82999427  0.29365939     1.06000
O1917       O  0.60203244  0.83002391  0.26080297    -0.76600
C1918       C  0.57887085  0.75176724  0.16155901     1.04300
Fe1919     Fe  0.82564960  0.71513899  0.23415511     1.65800
Fe1920     Fe  0.79656006  0.79791944  0.23637229     1.73200
Fe1921     Fe  0.86060624  0.77547416  0.17773812     1.54400
O1922       O  0.89723602  0.73760174  0.19255962    -0.80400
O1923       O  0.78006384  0.81067351  0.18403385    -0.78700
O1924       O  0.87751620  0.71701686  0.24609042    -0.82900
O1925       O  0.83519458  0.69542141  0.17927418    -0.77700
O1926       O  0.88247613  0.80801855  0.21434818    -0.79500
O1927       O  0.75585825  0.76428892  0.24141585    -0.82200
C1928       C  0.83898437  0.70892745  0.14663428     0.98500
C1929       C  0.90233476  0.72459896  0.22460054     1.06000
O1930       O  0.82690938  0.76247802  0.21582346    -1.11200
O1931       O  0.81215887  0.78864222  0.28949370    -0.73700
O1932       O  0.81905994  0.73104557  0.29038556    -0.77100
O1933       O  0.83971399  0.74157602  0.14106659    -0.77800
C1934       C  0.81934270  0.76081197  0.30648765     0.97400
O1935       O  0.77251289  0.71068315  0.22565575    -0.75800
O1936       O  0.83472032  0.83512512  0.23473206    -0.81000
C1937       C  0.80042654  0.82860917  0.16425025     1.00100
C1938       C  0.86720067  0.83317104  0.23020736     1.06000
O1939       O  0.83124998  0.81823792  0.15822124    -0.76600
C1940       C  0.74915158  0.73263533  0.23442879     1.04300
Fe1941     Fe  0.92303275  0.68458057  0.98034566     1.65800
Fe1942     Fe  0.84173002  0.65141039  0.98436836     1.73200
Fe1943     Fe  0.86179908  0.71257950  0.92124850     1.54400
O1944       O  0.89724112  0.75099603  0.93138270    -0.80400
O1945       O  0.82975436  0.63168523  0.93307005    -0.78700
O1946       O  0.92236967  0.73931370  0.98512923    -0.82900
O1947       O  0.94269498  0.68888451  0.92523132    -0.77700
O1948       O  0.82739597  0.73637065  0.95619515    -0.79500
O1949       O  0.87555722  0.61109997  0.99091581    -0.82200
C1950       C  0.92959663  0.68976207  0.89247233     0.98500
C1951       C  0.91431064  0.76055960  0.95936293     1.06000
O1952       O  0.87588017  0.68258940  0.96226134    -1.11200
O1953       O  0.85056132  0.66893608  0.03719385    -0.73700
O1954       O  0.90651855  0.68306619  0.03657271    -0.77100
O1955       O  0.89719930  0.68975788  0.88654566    -0.77800
C1956       C  0.87740832  0.67968107  0.05337688     0.97400
O1957       O  0.92863068  0.62972331  0.97750467    -0.75800
O1958       O  0.80352663  0.68860794  0.98102373    -0.81000
C1959       C  0.81248484  0.65042493  0.91108179     1.00100
C1960       C  0.80366766  0.72104770  0.97448430     1.06000
O1961       O  0.82156525  0.68121104  0.90369114    -0.76600
C1962       C  0.90738080  0.60533208  0.98528530     1.04300
Fe1963     Fe  0.91989710  0.93379332  0.99629401     1.65800
Fe1964     Fe  0.84362670  0.89026755  0.98953577     1.73200
Fe1965     Fe  0.85411706  0.95131449  0.05569579     1.54400
O1966       O  0.89302392  0.93521295  0.09060353    -0.80400
O1967       O  0.79992517  0.92108187  0.99310416    -0.78700
O1968       O  0.93807507  0.94062343  0.05117383    -0.82900
O1969       O  0.91340356  0.48895543  0.98931225    -0.77700
O1970       O  0.81887489  0.91302152  0.07273832    -0.79500
O1971       O  0.85115547  0.91106666  0.93778471    -0.82200
C1972       C  0.90136180  0.50871439  0.01476187     0.98500
C1973       C  0.92510901  0.94026099  0.08414277     1.06000
O1974       O  0.87289098  0.92496924  0.01374198    -1.11200
O1975       O  0.88299323  0.85540252  0.98242517    -0.73700
O1976       O  0.93228627  0.88024585  0.99973604    -0.77100
O1977       O  0.88654860  0.49653281  0.04355278    -0.77800
C1978       C  0.91464648  0.85355427  0.99077428     0.97400
O1979       O  0.90528674  0.93079328  0.93960213    -0.75800
O1980       O  0.83339424  0.86700028  0.03959104    -0.81000
C1981       C  0.79592293  0.95288542  0.00136517     1.00100
C1982       C  0.81350434  0.88190423  0.06251723     1.06000
O1983       O  0.81680192  0.96969287  0.02159333    -0.76600
C1984       C  0.87699515  0.92516917  0.92233056     1.04300
C1985       C  0.91851767  0.56813619  0.98810208    -0.15100
C1986       C  0.90098176  0.54726714  0.01192597    -0.30300
H1987       H  0.93864188  0.55785499  0.96996502     0.13900
H1988       H  0.88281402  0.55965642  0.03106861     0.14500
C1989       C  0.92222966  0.79832813  0.95999416    -0.15100
C1990       C  0.92961904  0.81787839  0.98995759    -0.30300
H1991       H  0.91417000  0.81223416  0.93504242     0.13900
H1992       H  0.93767449  0.80590171  0.01588707     0.14500
C1993       C  0.84510346  0.68666589  0.11363393    -0.15100
C1994       C  0.87391286  0.69155827  0.09256717    -0.30300
H1995       H  0.82489378  0.66908901  0.10475838     0.13900
H1996       H  0.89416697  0.70833848  0.10307819     0.14500
C1997       C  0.71230950  0.72228591  0.23725676    -0.15100
C1998       C  0.69176266  0.74126799  0.25987120    -0.30300
H1999       H  0.70201840  0.70180174  0.21980292     0.13900
H2000       H  0.70373886  0.76075593  0.27751275     0.14500
C2001       C  0.96522174  0.71134560  0.21944743    -0.15100
C2002       C  0.93774961  0.72245688  0.23929360    -0.30300
H2003       H  0.46295005  0.70009457  0.19081979     0.13900
H2004       H  0.94193744  0.73502485  0.26599789     0.14500
C2005       C  0.93592341  0.96587593  0.73930445    -0.15100
C2006       C  0.96162869  0.95792825  0.76299787    -0.30300
H2007       H  0.94234437  0.97416341  0.71114215     0.13900
H2008       H  0.45922971  0.95655274  0.78533234     0.14500
C2009       C  0.70728822  0.96462799  0.74111839    -0.15100
C2010       C  0.68784726  0.97986887  0.71452903    -0.30300
H2011       H  0.69587416  0.94821638  0.76249398     0.13900
H2012       H  0.70137357  0.99444949  0.69290357     0.14500
C2013       C  0.84448094  0.93209189  0.86260992    -0.15100
C2014       C  0.87287804  0.93820413  0.88359804    -0.30300
H2015       H  0.82562475  0.91269572  0.87093352     0.13900
H2016       H  0.89200664  0.95666546  0.87353046     0.14500
C2017       C  0.61046116  0.94556644  0.59372644    -0.15100
C2018       C  0.58392431  0.93846033  0.61728711    -0.30300
H2019       H  0.62802171  0.96656040  0.60070676     0.13900
H2020       H  0.56652752  0.91691508  0.61228309     0.14500
C2021       C  0.61930090  0.68671020  0.37426016    -0.15100
C2022       C  0.58870413  0.68762215  0.35573109    -0.30300
H2023       H  0.64139205  0.70013067  0.36223856     0.13900
H2024       H  0.56659644  0.67325390  0.36624762     0.14500
C2025       C  0.66497550  0.56180231  0.48135834    -0.15100
C2026       C  0.64771592  0.54099170  0.45757887    -0.30300
H2027       H  0.68443698  0.55137921  0.49992959     0.13900
H2028       H  0.63016784  0.55346721  0.43810596     0.14500
C2029       C  0.66594565  0.81803562  0.50403637    -0.15100
C2030       C  0.66089344  0.79079055  0.48131545    -0.30300
H2031       H  0.67419229  0.81358875  0.53250914     0.13900
H2032       H  0.65317450  0.79557221  0.45270102     0.14500
C2033       C  0.59318282  0.55395425  0.85230912    -0.15100
C2034       C  0.58879825  0.52208340  0.83726192    -0.30300
H2035       H  0.58476624  0.57725780  0.83782139     0.13900
H2036       H  0.59735886  0.00152179  0.85993875     0.14500
C2037       C  0.76787832  0.60650538  0.90056914    -0.15100
C2038       C  0.77747896  0.63980241  0.90079088    -0.30300
H2039       H  0.78741540  0.58613669  0.90089596     0.13900
H2040       H  0.75799305  0.66010743  0.89854813     0.14500
C2041       C  0.76707627  0.50699958  0.98595144    -0.15100
C2042       C  0.76605147  0.97107259  0.98644495    -0.30300
H2043       H  0.78756454  0.52218009  0.99853680     0.13900
H2044       H  0.74681413  0.95657356  0.97103720     0.14500
C2045       C  0.60904410  0.92851734  0.98579371    -0.15100
C2046       C  0.61708840  0.94968287  0.95711788    -0.30300
H2047       H  0.60070235  0.93902915  0.01244931     0.13900
H2048       H  0.62491126  0.93707404  0.93120911     0.14500
C2049       C  0.64113781  0.70018536  0.00164780    -0.15100
C2050       C  0.62183074  0.67795306  0.98136727    -0.30300
H2051       H  0.66223526  0.68914888  0.01769598     0.13900
H2052       H  0.59889663  0.68684620  0.96695732     0.14500
C2053       C  0.59625851  0.76335360  0.12675835    -0.15100
C2054       C  0.58626410  0.79122909  0.10644414    -0.30300
H2055       H  0.62049444  0.75054339  0.11959006     0.13900
H2056       H  0.56183095  0.80421140  0.11204180     0.14500
C2057       C  0.77439966  0.74067863  0.98849444    -0.15100
C2058       C  0.77147357  0.77494423  0.98360769    -0.30300
H2059       H  0.75429064  0.72609789  0.00286950     0.13900
H2060       H  0.79125860  0.78962263  0.96886862     0.14500
C2061       C  0.75038327  0.88254448  0.06919650    -0.15100
C2062       C  0.78043127  0.86467481  0.07134579    -0.30300
H2063       H  0.75107370  0.91071888  0.06675789     0.13900
H2064       H  0.77995946  0.83645668  0.06951889     0.12900
C2065       C  0.95233000  0.69354593  0.85967875    -0.15100
C2066       C  0.95580060  0.72504258  0.84312193    -0.30300
H2067       H  0.96119840  0.67002261  0.84584100     0.13900
H2068       H  0.94581099  0.74803598  0.85720342     0.14500
C2069       C  0.53110448  0.61946249  0.64808642    -0.15100
C2070       C  0.49842590  0.63135575  0.64710828    -0.30300
H2071       H  0.55208265  0.63810854  0.64632353     0.13900
H2072       H  0.97499372  0.60819779  0.65449447     0.14500
C2073       C  0.87258467  0.61708805  0.71982280    -0.15100
C2074       C  0.90167610  0.62543974  0.73718520    -0.30300
H2075       H  0.86381918  0.63126016  0.69539683     0.13900
H2076       H  0.91192835  0.60951990  0.75963294     0.14500
C2077       C  0.69203039  0.73021730  0.62470483    -0.15100
C2078       C  0.70153660  0.70300938  0.60264813    -0.30300
H2079       H  0.66856270  0.74431869  0.61771363     0.13900
H2080       H  0.72538101  0.68891329  0.60768995     0.14500
C2081       C  0.59095983  0.76205332  0.75599198    -0.15100
C2082       C  0.57228249  0.77776968  0.72930872    -0.30300
H2083       H  0.57719307  0.74599891  0.77621156     0.13900
H2084       H  0.58410067  0.79447449  0.70845208     0.14500
C2085       C  0.84658785  0.76635529  0.73910765    -0.15100
C2086       C  0.81935678  0.77822484  0.71965929    -0.30300
H2087       H  0.84200829  0.75335747  0.76559010     0.13900
H2088       H  0.82341021  0.79292938  0.69415640     0.14500
C2089       C  0.69274809  0.80922191  0.85419357    -0.15100
C2090       C  0.66389139  0.80627599  0.87587259    -0.30300
H2091       H  0.71346375  0.82665453  0.86197800     0.13900
H2092       H  0.64286569  0.79005478  0.86615331     0.14500
C2093       C  0.78256558  0.61789621  0.81771635    -0.15100
C2094       C  0.75129193  0.63263013  0.81959223    -0.30300
H2095       H  0.80477012  0.63474403  0.81373067     0.13900
H2096       H  0.72886851  0.61601715  0.82316427     0.14500
C2097       C  0.63093315  0.61975542  0.73225937    -0.15100
C2098       C  0.66145951  0.62691590  0.71679099    -0.30300
H2099       H  0.62009650  0.63582606  0.75440193     0.13900
H2100       H  0.67130179  0.61235440  0.69299202     0.14500
C2101       C  0.83865725  0.54030870  0.61646764    -0.15100
C2102       C  0.84556807  0.51081935  0.63559288    -0.30300
H2103       H  0.81654082  0.55644508  0.62369207     0.13900
H2104       H  0.84389561  0.98893186  0.62053087     0.14500
C2105       C  0.00410723  0.62453956  0.56840641    -0.15100
C2106       C  0.52317857  0.63814179  0.56402907    -0.30300
H2107       H  0.00319794  0.65264586  0.56511851     0.13900
H2108       H  0.50459815  0.65938393  0.56428200     0.14500
C2109       C  0.01502788  0.50789046  0.48273171    -0.15100
C2110       C  0.49823117  0.96467999  0.48621122    -0.30300
H2111       H  0.03553540  0.52134028  0.46778368     0.13900
H2112       H  0.47934994  0.95219016  0.50431835     0.14500
C2113       C  0.90658114  0.79682284  0.59386187    -0.15100
C2114       C  0.93406050  0.80617119  0.61465767    -0.30300
H2115       H  0.89153441  0.77433685  0.60250982     0.13900
H2116       H  0.94932087  0.82895325  0.60777599     0.14500
C2117       C  0.89617370  0.94439489  0.50752986    -0.15100
C2118       C  0.87246018  0.92282419  0.49275299    -0.30300
H2119       H  0.92116348  0.93328741  0.51466603     0.13900
H2120       H  0.84629149  0.93161183  0.48745619     0.14500
C2121       C  0.87061909  0.69033711  0.45930739    -0.15100
C2122       C  0.85920388  0.66981052  0.48719630    -0.30300
H2123       H  0.88273631  0.67737576  0.43558298     0.13900
H2124       H  0.84704213  0.68078858  0.51188659     0.14500
C2125       C  0.83154574  0.76376508  0.34555225    -0.15100
C2126       C  0.83231093  0.79437479  0.36450684    -0.30300
H2127       H  0.84441307  0.74115687  0.35732087     0.13900
H2128       H  0.81843958  0.81702869  0.35436496     0.14500
C2129       C  0.00667287  0.74957516  0.50583359    -0.15100
C2130       C  0.51988295  0.73362590  0.48436443    -0.30300
H2131       H  0.02112034  0.75817007  0.52998592     0.13900
H2132       H  0.50350388  0.72256948  0.46294896     0.14500
C2133       C  0.01109117  0.83048882  0.39620244    -0.15100
C2134       C  0.54115479  0.84364062  0.39016293    -0.30300
H2135       H  0.00858995  0.81148580  0.37403446     0.13900
H2136       H  0.56005076  0.83414842  0.37025163     0.14500
C2137       C  0.68891366  0.97131937  0.34361183    -0.15100
C2138       C  0.68982340  0.94093231  0.36306557    -0.30300
H2139       H  0.68076152  0.49353247  0.35311761     0.13900
H2140       H  0.70629487  0.91960506  0.35401150     0.14500
C2141       C  0.69411438  0.55468774  0.10698710    -0.15100
C2142       C  0.66530972  0.55199378  0.08587142    -0.30300
H2143       H  0.71561161  0.57085904  0.09819453     0.13900
H2144       H  0.64407773  0.53611572  0.09611532     0.14500
C2145       C  0.79129387  0.86546655  0.15642272    -0.15100
C2146       C  0.75831806  0.87637077  0.15479852    -0.30300
H2147       H  0.81184186  0.88456702  0.15791658     0.13900
H2148       H  0.73806838  0.85716944  0.15132239     0.14500
C2149       C  0.65088446  0.87233413  0.23062763    -0.15100
C2150       C  0.62161869  0.86546904  0.21276097    -0.30300
H2151       H  0.65961821  0.85609537  0.25357040     0.13900
H2152       H  0.61395969  0.87991908  0.18809777     0.14500
C2153       C  0.94773682  0.94876757  0.11599195    -0.15100
C2154       C  0.94399524  0.97948228  0.13408877    -0.30300
H2155       H  0.96664697  0.92971455  0.12507851     0.13900
H2156       H  0.95289027  0.49861918  0.11032806     0.14500
C2157       C  0.84439240  0.51499873  0.22342800    -0.15100
C2158       C  0.81596288  0.52621645  0.24178831    -0.30300
H2159       H  0.84137887  0.50086471  0.19746362     0.13900
H2160       H  0.81882304  0.54153469  0.26697686     0.14500
C2161       C  0.57326972  0.51360575  0.24629431    -0.15100
C2162       C  0.58917002  0.51823554  0.21323236    -0.30300
H2163       H  0.58881701  0.50956837  0.27100259     0.13900
H2164       H  0.57355598  0.51804732  0.18816647     0.14500
C2165       C  0.90676206  0.54762301  0.38109057    -0.15100
C2166       C  0.93327304  0.55449806  0.35729040    -0.30300
H2167       H  0.88697696  0.52928943  0.37271805     0.13900
H2168       H  0.95236803  0.57412201  0.36387390     0.14500
C2169       C  0.49611216  0.87761707  0.32000215    -0.15100
C2170       C  0.52712964  0.86509450  0.30970732    -0.30300
H2171       H  0.47462986  0.85970041  0.32308204     0.13900
H2172       H  0.54844208  0.88307666  0.30590628     0.14500
C2173       C  0.88763547  0.86178965  0.24289553    -0.15100
C2174       C  0.91796552  0.86874708  0.22674491    -0.30300
H2175       H  0.87677018  0.87854518  0.26443656     0.13900
H2176       H  0.92755438  0.85384250  0.20307042     0.14500
loop_ 
_geom_bond_atom_site_label_1 
_geom_bond_atom_site_label_2 
_geom_bond_distance 
_geom_bond_site_symmetry_2 
_ccdc_geom_bond_type 
Fe1          O17   2.125       .  S
Fe1           O7   2.086       .  S
Fe1          O14   2.121       .  S
Fe1           O6   2.143       .  S
Fe1         O556   1.940   1_545  S
Fe2           O5   2.024       .  S
Fe2           O9   2.084       .  S
Fe2          O18   2.116       .  S
Fe2        O1101   2.048       .  S
Fe2          O12   1.979       .  S
Fe3          O21   2.037       .  S
Fe3           O8   2.043       .  S
Fe3          O15   2.040       .  S
Fe3           O4   2.053       .  S
Fe3          O12   1.925       .  S
O4          C555   1.266       .  A
O5           C19   1.261       .  A
O6           C11   1.290       .  A
O7           C10   1.269       .  A
O8           C20   1.267       .  A
O9          C566   1.270       .  A
C10         O559   1.269   1_545  A
C10         C525   1.492       .  S
C11         O548   1.273       .  A
C11         C534   1.487       .  S
O12        Fe545   1.949       .  S
O13       Fe1090   2.041   1_455  S
O13         C560   1.267       .  A
O14        C1104   1.279       .  A
O15         C554   1.268       .  A
C16         O557   1.267   1_545  A
C16        O1102   1.289       .  A
C16         C529   1.486       .  S
O17          C22   1.284   1_545  A
O18          C20   1.270       .  A
C19          O21   1.267       .  A
C19         C542   1.438       .  S
C20        C1625   1.482       .  S
C22         O553   1.265       .  A
C22        C1066   1.491       .  S
Fe23         O39   2.116       .  S
Fe23         O29   2.130       .  S
Fe23         O36   2.104       .  S
Fe23         O28   2.099       .  S
Fe23        O578   1.949   1_545  S
Fe24         O27   2.048       .  S
Fe24         O31   2.032       .  S
Fe24         O35   2.039       .  S
Fe24         O40   2.053       .  S
Fe24         O34   1.953       .  S
Fe25         O43   2.092       .  S
Fe25         O30   2.028       .  S
Fe25         O37   2.044       .  S
Fe25         O26   2.062       .  S
Fe25         O34   1.947       .  S
O26         C577   1.264       .  A
O27          C41   1.262       .  A
O28          C33   1.270       .  A
O29          C32   1.286       .  A
O30          C42   1.271       .  A
O31         C588   1.266       .  A
C32         O581   1.273   1_545  A
C32         C509   1.475       .  S
C33         O570   1.265   1_545  A
C33         C530   1.487       .  S
O34        Fe567   1.952       .  S
O35         C582   1.265       .  A
O36          C38   1.278   1_545  A
O37         C576   1.277       .  A
C38         O579   1.268       .  A
C38        C1049   1.495       .  S
O39          C44   1.281       .  A
O40          C42   1.266       .  A
C41          O43   1.267       .  A
C41         C514   1.480       .  S
C42         C517   1.442       .  S
C44         O575   1.269   1_545  A
C44         C526   1.484       .  S
Fe45         O61   2.122       .  S
Fe45         O51   2.132       .  S
Fe45         O58   2.127       .  S
Fe45         O50   2.102       .  S
Fe45         O56   1.946       .  S
Fe46         O49   2.042       .  S
Fe46         O53   2.031       .  S
Fe46         O57   2.030       .  S
Fe46         O62   2.056       .  S
Fe46         O56   1.961       .  S
Fe47         O65   2.093       .  S
Fe47         O52   2.016       .  S
Fe47         O59   2.055       .  S
Fe47         O48   2.066       .  S
Fe47         O56   1.937       .  S
O48          C55   1.266       .  A
O49          C63   1.261       .  A
O50          C55   1.272       .  A
O51          C54   1.286       .  A
O52          C64   1.269       .  A
O53          C66   1.265       .  A
C54          O59   1.276       .  A
C54         C494   1.486       .  S
C55         C489   1.484       .  S
O57          C60   1.262       .  A
O58          C60   1.284       .  A
C60         C481   1.487       .  S
O61          C66   1.280       .  A
O62          C64   1.265       .  A
C63          O65   1.270       .  A
C63         C501   1.479       .  S
C64         C497   1.446       .  S
C66         C486   1.489       .  S
Fe67         O83   2.121       .  S
Fe67         O80   2.118       .  S
Fe67         O72   2.146       .  S
Fe67        O617   2.095       .  S
Fe67         O78   1.934       .  S
Fe68         O71   2.060       .  S
Fe68         O75   2.044       .  S
Fe68         O79   2.047       .  S
Fe68         O84   2.050       .  S
Fe68         O78   1.952       .  S
Fe69         O87   2.014       .  S
Fe69         O74   2.101       .  S
Fe69         O70   2.043       .  S
Fe69        O625   2.077   1_545  S
Fe69         O78   1.950       .  S
O70          C77   1.276       .  A
O71          C85   1.269       .  A
O72          C77   1.290       .  A
O73        Fe611   2.099       .  S
O73          C76   1.268       .  A
O74          C86   1.269       .  A
O75          C88   1.263       .  A
C76          O81   1.263       .  A
C76         C485   1.484       .  S
C77         C469   1.486       .  S
O79          C82   1.270       .  A
O80          C82   1.280       .  A
O81        Fe613   2.060       .  S
C82         C490   1.494       .  S
O83          C88   1.282       .  A
O84          C86   1.263       .  A
C85          O87   1.268       .  A
C85         C477   1.442   1_545  S
C86         C473   1.482       .  S
C88         C533   1.492       .  S
Fe89        O105   2.100       .  S
Fe89         O95   2.092       .  S
Fe89        O102   2.103       .  S
Fe89         O94   2.137       .  S
Fe89        O100   1.951       .  S
Fe90         O93   2.060       .  S
Fe90         O97   2.052       .  S
Fe90        O101   2.052       .  S
Fe90        O106   2.053       .  S
Fe90        O100   1.959       .  S
Fe91        O109   2.027       .  S
Fe91         O96   2.086       .  S
Fe91        O103   2.064       .  S
Fe91         O92   2.041       .  S
Fe91        O100   1.953       .  S
O92          C99   1.276       .  A
O93         C107   1.268       .  A
O94          C99   1.290       .  A
O95          C98   1.266       .  A
O96         C108   1.266       .  A
O97         C110   1.266       .  A
C98         O103   1.263       .  A
C98         C449   1.482       .  S
C99         C457   1.482       .  S
O101        C104   1.267       .  A
O102        C104   1.277       .  A
C104        C454   1.481       .  S
O105        C110   1.279       .  A
O106        C108   1.264       .  A
C107        O109   1.271       .  A
C107        C466   1.447       .  S
C108        C462   1.479       .  S
C110        C445   1.484       .  S
Fe111       O127   2.113       .  S
Fe111       O117   2.142       .  S
Fe111       O124   2.125       .  S
Fe111       O116   2.078       .  S
Fe111       O122   1.938       .  S
Fe112       O115   2.048       .  S
Fe112       O123   2.040       .  S
Fe112       O128   2.045       .  S
Fe112      O1207   2.051       .  S
Fe112       O122   1.950       .  S
Fe113       O131   2.100       .  S
Fe113       O118   2.019       .  S
Fe113       O125   2.029       .  S
Fe113       O114   2.089       .  S
Fe113       O122   1.954       .  S
O114        C121   1.267       .  A
O115        C129   1.267       .  A
O116        C121   1.266       .  A
O117        C120   1.289       .  A
O118        C130   1.268       .  A
O119      Fe1200   2.045   1_455  S
O119        C132   1.267       .  A
C120        O125   1.271       .  A
C120        C482   1.482       .  S
C121        C453   1.482       .  S
O123        C126   1.264       .  A
O124        C126   1.283       .  A
C126        C434   1.493       .  S
O127       C1220   1.278       .  A
O128        C130   1.263       .  A
C129        O131   1.271       .  A
C129       C1526   1.483       .  S
C130        C442   1.436       .  S
C132       O1215   1.276       .  A
C132        C450   1.485       .  S
Fe133       O149   2.116   1_554  S
Fe133       O139   2.093       .  S
Fe133       O146   2.111       .  S
Fe133       O138   2.118       .  S
Fe133       O144   1.942       .  S
Fe134       O137   2.065       .  S
Fe134       O141   2.046       .  S
Fe134       O145   2.049       .  S
Fe134       O150   2.046   1_556  S
Fe134       O144   1.949   1_556  S
Fe135       O153   2.021       .  S
Fe135       O140   2.102       .  S
Fe135       O147   2.079       .  S
Fe135       O136   2.055       .  S
Fe135       O144   1.943       .  S
O136        C143   1.274       .  A
O137        C151   1.268   1_556  A
O138        C143   1.282       .  A
O139        C142   1.272       .  A
O140        C152   1.272       .  A
O141        C154   1.265       .  A
C142        O147   1.270       .  A
C142        C417   1.485       .  S
C143        C422   1.478       .  S
O145        C148   1.269       .  A
O146        C148   1.278   1_554  A
C148        C413   1.488       .  S
O149        C154   1.281       .  A
O150        C152   1.261       .  A
C151        O153   1.268       .  A
C151        C426   1.448   1_554  S
C152        C429   1.477       .  S
C154        C458   1.488       .  S
Fe155       O171   2.109       .  S
Fe155       O161   2.137       .  S
Fe155       O168   2.125   1_556  S
Fe155       O704   2.082   1_556  S
Fe155       O166   1.936       .  S
Fe156       O159   2.042       .  S
Fe156       O163   2.050   1_556  S
Fe156       O167   2.033   1_556  S
Fe156       O172   2.058       .  S
Fe156       O166   1.948       .  S
Fe157       O175   2.108       .  S
Fe157       O169   2.040       .  S
Fe157       O706   2.031       .  S
Fe157       O702   2.085   1_545  S
Fe157       O166   1.954       .  S
O158       Fe701   2.055       .  S
O158        C165   1.262       .  A
O159        C173   1.263       .  A
O160       Fe699   2.107       .  S
O160        C165   1.272       .  A
O161        C164   1.289       .  A
O162       Fe701   2.042       .  S
O162        C718   1.272       .  A
O163        C176   1.267   1_554  A
C164        O169   1.275       .  A
C164        C401   1.484       .  S
C165        C414   1.484       .  S
O167        C170   1.265       .  A
O168        C170   1.284       .  A
C170        C510   1.488       .  S
O171        C176   1.276       .  A
O172        C174   1.266       .  A
C173        O175   1.272       .  A
C173        C405   1.480       .  S
C174        O706   1.268       .  A
C174        C409   1.445   1_556  S
C176        C418   1.492       .  S
Fe177       O193   2.119       .  S
Fe177       O183   2.113       .  S
Fe177       O190   2.128       .  S
Fe177       O182   2.141       .  S
Fe177       O188   1.934       .  S
Fe178       O181   2.071       .  S
Fe178       O185   2.047       .  S
Fe178       O189   2.054       .  S
Fe178       O194   2.050       .  S
Fe178       O188   1.931       .  S
Fe179       O197   2.022       .  S
Fe179       O184   2.097       .  S
Fe179       O191   2.064       .  S
Fe179       O180   2.034       .  S
Fe179       O188   1.956       .  S
O180        C187   1.275       .  A
O181        C195   1.279       .  A
O182        C187   1.290       .  A
O183        C186   1.272       .  A
O184        C196   1.265       .  A
O185        C198   1.265       .  A
C186        O191   1.261       .  A
C186        C398   1.484       .  S
C187        C446   1.477       .  S
O189        C192   1.271       .  A
O190        C192   1.284       .  A
C192        C393   1.506       .  S
O193        C198   1.282       .  A
O194        C196   1.259       .  A
C195        O197   1.266       .  A
C195        C498   1.447       .  S
C196        C474   1.478       .  S
C198        C389   1.491       .  S
Fe199       O215   2.105       .  S
Fe199       O205   2.116       .  S
Fe199       O212   2.122       .  S
Fe199       O748   2.090       .  S
Fe199       O210   1.941       .  S
Fe200       O203   2.042       .  S
Fe200       O207   2.059       .  S
Fe200       O211   2.027       .  S
Fe200       O216   2.080       .  S
Fe200       O210   1.945       .  S
Fe201       O219   2.114       .  S
Fe201       O206   2.024       .  S
Fe201       O213   2.047       .  S
Fe201       O746   2.082       .  S
Fe201       O210   1.937       .  S
O202       Fe745   2.058       .  S
O202        C209   1.273   1_565  A
O203        C217   1.259       .  A
O204       Fe743   2.132       .  S
O204        C209   1.282   1_565  A
O205        C208   1.281       .  A
O206        C218   1.266       .  A
O207        C220   1.269       .  A
C208        O213   1.273       .  A
C208        C506   1.473       .  S
C209        C394   1.493       .  S
O211        C214   1.263       .  A
O212        C214   1.283       .  A
C214        C385   1.482       .  S
O215        C220   1.276       .  A
O216        C218   1.271       .  A
C217        O219   1.275       .  A
C217        C502   1.479       .  S
C218        C478   1.455       .  S
C220        C397   1.489       .  S
Fe221       O237   2.122       .  S
Fe221       O227   2.080       .  S
Fe221       O234   2.114       .  S
Fe221       O226   2.145       .  S
Fe221       O776   1.939       .  S
Fe222       O225   2.048       .  S
Fe222       O229   2.043       .  S
Fe222       O233   2.057       .  S
Fe222       O238   2.050       .  S
Fe222       O232   1.951       .  S
Fe223       O241   2.019       .  S
Fe223       O228   2.101       .  S
Fe223       O235   2.089   1_545  S
Fe223       O768   2.036   1_545  S
Fe223       O232   1.951       .  S
O224       Fe767   2.038       .  S
O224        C231   1.273       .  A
O225        C239   1.264       .  A
O226        C231   1.291       .  A
O227        C230   1.266       .  A
O228        C240   1.272       .  A
O229        C786   1.264       .  A
C230        O779   1.267       .  A
C230        C373   1.484       .  S
C231        C381   1.488       .  S
O232       Fe765   1.934   1_545  S
O233        C780   1.269   1_545  A
O234        C236   1.277       .  A
O235        C774   1.268       .  A
C236        O777   1.267       .  A
C236        C377   1.494       .  S
O237        C242   1.283       .  A
O238        C240   1.267       .  A
C239        O241   1.268       .  A
C239        C441   1.437       .  S
C240        C461   1.481       .  S
C242        O773   1.265       .  A
C242       C1014   1.491       .  S
Fe243       O259   2.120       .  S
Fe243       O249   2.123       .  S
Fe243       O256   2.105       .  S
Fe243       O248   2.106       .  S
Fe243       O798   1.948       .  S
Fe244       O247   2.068       .  S
Fe244       O255   2.063       .  S
Fe244       O260   2.053       .  S
Fe244       O795   2.050   1_455  S
Fe244       O254   1.960       .  S
Fe245       O263   2.063       .  S
Fe245       O250   2.032       .  S
Fe245       O801   2.035   1_545  S
Fe245       O790   2.053   1_545  S
Fe245       O254   1.946       .  S
O246       Fe789   2.073       .  S
O246        C253   1.266       .  A
O247        C261   1.267       .  A
O248        C253   1.271       .  A
O249        C252   1.285       .  A
O250        C262   1.272       .  A
O251       Fe788   2.049       .  S
O251        C264   1.271       .  A
C252        O257   1.273       .  A
C252        C386   1.472       .  S
C253        C378   1.489       .  S
O254       Fe787   1.953   1_545  S
O255        C802   1.267       .  A
O256        C258   1.278       .  A
O257       Fe789   2.034       .  S
C258        O799   1.264       .  A
C258        C946   1.484       .  S
O259        C264   1.281       .  A
O260        C262   1.268       .  A
C261        O263   1.262       .  A
C261        C437   1.475       .  S
C262        C465   1.445       .  S
C264       C1462   1.500   1_455  S
Fe265       O281   2.109       .  S
Fe265       O271   2.109       .  S
Fe265       O278   2.127       .  S
Fe265       O270   2.143       .  S
Fe265       O276   1.951       .  S
Fe266       O269   2.054       .  S
Fe266       O273   2.050       .  S
Fe266       O277   2.049   1_455  S
Fe266       O282   2.049       .  S
Fe266       O276   1.957       .  S
Fe267       O285   2.024       .  S
Fe267       O272   2.084       .  S
Fe267       O279   2.066       .  S
Fe267       O268   2.038       .  S
Fe267       O276   1.951       .  S
O268        C275   1.274       .  A
O269        C283   1.266       .  A
O270        C275   1.290       .  A
O271        C274   1.271       .  A
O272        C284   1.267       .  A
O273        C286   1.267       .  A
C274        O279   1.264       .  A
C274        C366   1.490       .  S
C275        C390   1.482       .  S
O277        C280   1.267       .  A
O278        C280   1.283   1_455  A
C280       C1457   1.498       .  S
O281        C286   1.280       .  A
O282        C284   1.263       .  A
C283        O285   1.270       .  A
C283        C518   1.441       .  S
C284        C538   1.477       .  S
C286        C421   1.488       .  S
Fe287       O303   2.118       .  S
Fe287       O293   2.159       .  S
Fe287       O300   2.140       .  S
Fe287       O292   2.080       .  S
Fe287       O298   1.932       .  S
Fe288       O291   2.048       .  S
Fe288       O295   2.057       .  S
Fe288       O299   2.031       .  S
Fe288       O304   2.056       .  S
Fe288       O298   1.943       .  S
Fe289       O307   2.102       .  S
Fe289       O294   2.005       .  S
Fe289       O301   2.022       .  S
Fe289       O290   2.086       .  S
Fe289       O298   1.951       .  S
O290        C297   1.268       .  A
O291        C305   1.264       .  A
O292        C297   1.266       .  A
O293        C296   1.293       .  A
O294        C306   1.264       .  A
O295        C308   1.270       .  A
C296        O301   1.270       .  A
C296        C361   1.486       .  S
C297        C370   1.489       .  S
O299        C302   1.262       .  A
O300        C302   1.286       .  A
C302        C493   1.499       .  S
O303        C308   1.280       .  A
O304        C306   1.268       .  A
C305        O307   1.271       .  A
C305        C513   1.480       .  S
C306        C541   1.428       .  S
C308        C365   1.498       .  S
Fe309       O325   2.127       .  S
Fe309       O315   2.135       .  S
Fe309       O322   2.126   1_556  S
Fe309       O314   2.117       .  S
Fe309       O320   1.946       .  S
Fe310       O313   2.053       .  S
Fe310       O317   2.040       .  S
Fe310       O321   2.044   1_556  S
Fe310       O326   2.060       .  S
Fe310       O320   1.959       .  S
Fe311       O329   2.088       .  S
Fe311       O316   2.030       .  S
Fe311       O323   2.049       .  S
Fe311       O312   2.062       .  S
Fe311       O320   1.946       .  S
O312        C319   1.264       .  A
O313        C327   1.261       .  A
O314        C319   1.273       .  A
O315        C318   1.288       .  A
O316        C328   1.271       .  A
O317        C330   1.267       .  A
C318        O323   1.276       .  A
C318        C433   1.482       .  S
C319        C357   1.491       .  S
O321        C324   1.264       .  A
O322        C324   1.284       .  A
C324        C362   1.491       .  S
O325        C330   1.281       .  A
O326        C328   1.270       .  A
C327        O329   1.266       .  A
C327        C406   1.477       .  S
C328        C425   1.445       .  S
C330        C353   1.495       .  S
Fe331       O347   2.127       .  S
Fe331       O344   2.130       .  S
Fe331       O336   2.117   1_556  S
Fe331       O881   2.114       .  S
Fe331       O342   1.943   1_556  S
Fe332       O335   2.052       .  S
Fe332       O339   2.047       .  S
Fe332       O343   2.041       .  S
Fe332       O348   2.049   1_556  S
Fe332       O342   1.956   1_556  S
Fe333       O351   2.032       .  S
Fe333       O338   2.100       .  S
Fe333       O334   2.058       .  S
Fe333       O889   2.076       .  S
Fe333       O342   1.942       .  S
O334        C341   1.274       .  A
O335        C349   1.263   1_556  A
O336        C341   1.280       .  A
O337       Fe875   2.097       .  S
O337        C340   1.273   1_566  A
O338        C350   1.274       .  A
O339        C352   1.266       .  A
C340        O345   1.270   1_545  A
C340        C354   1.488       .  S
C341        C521   1.485       .  S
O343        C346   1.265       .  A
O344        C346   1.279       .  A
O345       Fe877   2.080       .  S
C346        C358   1.501       .  S
O347        C352   1.285       .  A
O348        C350   1.265       .  A
C349        O351   1.268       .  A
C349        C410   1.449   1_554  S
C350        C430   1.476       .  S
C352        C382   1.491       .  S
C353        C354   1.354   1_556  D
C353        H355   1.085       .  S
C354        H356   1.088       .  S
C357        C358   1.354       .  D
C357        H359   1.089       .  S
C358        H360   1.085   1_556  S
C361        C362   1.363       .  D
C361        H363   1.086       .  S
C362        H364   1.087       .  S
C365        C366   1.353       .  D
C365        H367   1.085       .  S
C366        H368   1.088       .  S
C369       C1368   1.477       .  S
C369        C370   1.346       .  D
C369       H1459   1.087       .  S
C370        H372   1.087       .  S
H371       C1457   1.086       .  S
C373        C374   1.347       .  D
C373        H375   1.087       .  S
C374       C1352   1.484       .  S
C374       H1464   1.086       .  S
H376       C1462   1.085       .  S
C377        C378   1.352       .  D
C377        H379   1.085       .  S
C378        H380   1.089       .  S
C381        C382   1.359       .  D
C381        H383   1.086       .  S
C382        H384   1.087       .  S
C385        C386   1.356       .  D
C385        H387   1.087       .  S
C386        H388   1.086       .  S
C389        C390   1.359       .  D
C389        H391   1.087       .  S
C390        H392   1.086       .  S
C393        C394   1.359       .  D
C393        H395   1.085       .  S
C394        H396   1.087       .  S
C397        C398   1.346       .  D
C397        H399   1.085       .  S
C398        H400   1.089       .  S
C401        C402   1.357       .  D
C401        H403   1.086       .  S
C402        C802   1.489       .  S
C402        H948   1.088   1_545  S
H404        C946   1.087       .  S
C405        C406   1.342       .  D
C405        H407   1.087       .  S
C406        H408   1.087       .  S
C409        C954   1.332   1_544  D
C409        H411   1.088       .  S
C410        C953   1.329       .  D
C410        H412   1.087       .  S
C413        C414   1.347       .  D
C413        H415   1.085   1_556  S
C414        H416   1.090       .  S
C417        C418   1.352   1_554  D
C417        H419   1.088       .  S
C418        H420   1.085       .  S
C421        C422   1.356       .  D
C421        H423   1.087       .  S
C422        H424   1.086       .  S
C425        C426   1.333       .  D
C425        H427   1.088   1_556  S
C426        H428   1.087       .  S
C429        C430   1.352       .  D
C429        H431   1.087       .  S
C430        H432   1.087       .  S
C433        C434   1.360       .  D
C433        H435   1.086       .  S
C434        H436   1.087       .  S
C437        C438   1.336   1_455  D
C437        H439   1.088       .  S
C438       C1217   1.481       .  S
C438       H1528   1.087       .  S
H440       C1526   1.087       .  S
C441        C442   1.328       .  D
C441        H443   1.088       .  S
C442        H444   1.088       .  S
C445        C446   1.356       .  D
C445        H447   1.087       .  S
C446        H448   1.086       .  S
C449        C450   1.350       .  D
C449        H451   1.089       .  S
C450        H452   1.085       .  S
C453        C454   1.347       .  D
C453        H455   1.087       .  S
C454        H456   1.086       .  S
C457        C458   1.357       .  D
C457        H459   1.086       .  S
C458        H460   1.087       .  S
C461        C462   1.340       .  D
C461        H463   1.087       .  S
C462        H464   1.087       .  S
C465        C466   1.331       .  D
C465        H467   1.088       .  S
C466        H468   1.087       .  S
C469        C470   1.362       .  D
C469        H471   1.086       .  S
C470        C786   1.496       .  S
C470       H1016   1.087   1_545  S
H472       C1014   1.087       .  S
C473       C1562   1.341       .  D
C473        H475   1.087       .  S
C474       C1561   1.339       .  D
C474        H476   1.087   1_455  S
C477       C2110   1.333       .  D
C477        H479   1.088   1_565  S
C478       C2109   1.341       .  D
C478        H480   1.087   1_455  S
C481        C482   1.360       .  D
C481        H483   1.087       .  S
C482        H484   1.086       .  S
C485        C486   1.350       .  D
C485        H487   1.090       .  S
C486        H488   1.085       .  S
C489        C490   1.351       .  D
C489        H491   1.089       .  S
C490        H492   1.085       .  S
C493        C494   1.365       .  D
C493        H495   1.086       .  S
C494        H496   1.086       .  S
C497       C1586   1.329       .  D
C497        H499   1.087       .  S
C498       C1585   1.333       .  D
C498        H500   1.087       .  S
C501       C1590   1.351       .  D
C501        H503   1.087       .  S
C502       C1589   1.347   1_455  D
C502        H504   1.087       .  S
C505        C582   1.486       .  S
C505        C506   1.356       .  D
C505       H1051   1.087       .  S
C506        H508   1.086       .  S
H507       C1049   1.087       .  S
C509        C510   1.358       .  D
C509        H511   1.086       .  S
C510        H512   1.087       .  S
C513        C514   1.340       .  D
C513        H515   1.087       .  S
C514        H516   1.087       .  S
C517        C518   1.329       .  D
C517        H519   1.088       .  S
C518        H520   1.088       .  S
C521        C522   1.352       .  D
C521        H523   1.086       .  S
C522        C566   1.486       .  S
C522       H1068   1.088       .  S
H524       C1066   1.087       .  S
C525        C526   1.349       .  D
C525        H527   1.087       .  S
C526        H528   1.086       .  S
C529        C530   1.349       .  D
C529        H531   1.085       .  S
C530        H532   1.089       .  S
C533        C534   1.361       .  D
C533        H535   1.087       .  S
C534        H536   1.086       .  S
C537       C1108   1.478       .  S
C537        C538   1.337   1_655  D
C537        H539   1.087       .  S
C538        H540   1.087       .  S
C541        C542   1.334       .  D
C541        H543   1.088       .  S
C542        H544   1.088       .  S
Fe545       O561   2.065       .  S
Fe545       O551   2.121       .  S
Fe545       O558   2.128       .  S
Fe545       O550   2.100       .  S
Fe546       O549   2.041       .  S
Fe546       O553   2.037       .  S
Fe546      O1645   2.041       .  S
Fe546       O562   2.038       .  S
Fe546       O556   1.957       .  S
Fe547       O565   2.024       .  S
Fe547       O552   2.106       .  S
Fe547       O559   2.089       .  S
Fe547       O548   2.038   1_565  S
Fe547       O556   1.963       .  S
O549        C563   1.261       .  A
O550        C555   1.276       .  A
O551        C554   1.278       .  A
O552        C564   1.272       .  A
C554       C1069   1.476       .  S
C555       C1078   1.486       .  S
O557      Fe1634   2.025   1_455  S
O558       C1648   1.286       .  A
C560       O1646   1.279       .  A
C560       C1073   1.492       .  S
O561        C566   1.267       .  A
O562        C564   1.264       .  A
C563        O565   1.269       .  A
C563       C1086   1.437       .  S
C564       C2169   1.484       .  S
Fe567       O583   2.118       .  S
Fe567       O573   2.133       .  S
Fe567       O580   2.113       .  S
Fe567       O572   2.105       .  S
Fe568       O571   2.070       .  S
Fe568       O575   2.057       .  S
Fe568       O579   2.071       .  S
Fe568       O584   2.052       .  S
Fe568       O578   1.958       .  S
Fe569       O587   2.084       .  S
Fe569       O574   2.018       .  S
Fe569       O581   2.039       .  S
Fe569       O570   2.073       .  S
Fe569       O578   1.951       .  S
O571        C585   1.266       .  A
O572        C577   1.270       .  A
O573        C576   1.289       .  A
O574        C586   1.269       .  A
C576       C1053   1.479       .  S
C577       C1074   1.485       .  S
O580        C582   1.281       .  A
O583        C588   1.279       .  A
O584        C586   1.270       .  A
C585        O587   1.266       .  A
C585       C1058   1.483       .  S
C586       C1061   1.435       .  S
C588       C1070   1.495       .  S
Fe589       O605   2.134       .  S
Fe589       O595   2.102       .  S
Fe589       O602   2.066       .  S
Fe589       O594   2.120       .  S
Fe589       O600   1.951       .  S
Fe590       O593   2.116       .  S
Fe590       O597   2.052       .  S
Fe590       O601   2.085       .  S
Fe590       O606   2.022       .  S
Fe590       O600   1.979       .  S
Fe591       O609   2.057       .  S
Fe591       O596   2.034       .  S
Fe591       O603   2.073       .  S
Fe591       O592   2.043       .  S
Fe591       O600   1.928       .  S
O592        C599   1.266       .  A
O593        C607   1.271       .  A
O594        C599   1.278       .  A
O595        C598   1.278       .  A
O596        C608   1.268       .  A
O597        C610   1.273       .  A
C598        O603   1.270       .  A
C598       C1038   1.491       .  S
C599       C1033   1.479       .  S
O601        C604   1.269       .  A
O602        C604   1.267       .  A
C604       C1025   1.490       .  S
O605        C610   1.287       .  A
O606        C608   1.260       .  A
C607        O609   1.274       .  A
C607       C1045   1.489       .  S
C608       C1041   1.438       .  S
C610       C1030   1.483       .  S
Fe611       O627   2.103       .  S
Fe611       O624   2.113       .  S
Fe611       O616   2.127       .  S
Fe611       O622   1.961       .  S
Fe612       O615   2.061       .  S
Fe612       O619   2.051       .  S
Fe612       O623   2.047       .  S
Fe612       O628   2.061       .  S
Fe612       O622   1.962       .  S
Fe613       O631   2.044       .  S
Fe613       O618   2.093       .  S
Fe613       O614   2.056       .  S
Fe613       O622   1.951       .  S
O614        C621   1.279       .  A
O615        C629   1.270       .  A
O616        C621   1.288       .  A
O617        C620   1.269   1_545  A
O618        C630   1.267       .  A
O619        C632   1.266       .  A
C620        O625   1.264       .  A
C620       C1029   1.485       .  S
C621       C1013   1.481       .  S
O623        C626   1.268       .  A
O624        C626   1.278       .  A
C626       C1034   1.492       .  S
O627        C632   1.279       .  A
O628        C630   1.263       .  A
C629        O631   1.273       .  A
C629       C1021   1.452       .  S
C630       C1017   1.487       .  S
C632       C1077   1.486       .  S
Fe633       O649   2.085       .  S
Fe633       O639   2.102       .  S
Fe633       O646   2.132       .  S
Fe633       O638   2.115       .  S
Fe633       O644   1.960       .  S
Fe634       O637   2.016       .  S
Fe634       O641   2.083       .  S
Fe634       O645   2.032       .  S
Fe634       O650   2.063       .  S
Fe634       O644   1.971       .  S
Fe635       O653   2.044       .  S
Fe635       O640   2.064       .  S
Fe635       O647   2.035       .  S
Fe635       O636   2.056       .  S
Fe635       O644   1.950       .  S
O636        C643   1.272       .  A
O637        C651   1.262       .  A
O638        C643   1.284       .  A
O639        C642   1.271       .  A
O640        C652   1.268       .  A
O641        C654   1.266       .  A
C642        O647   1.263       .  A
C642        C993   1.476       .  S
C643       C1001   1.489       .  S
O645        C648   1.268       .  A
O646        C648   1.284       .  A
C648        C998   1.479       .  S
O649        C654   1.270       .  A
O650        C652   1.265       .  A
C651        O653   1.271       .  A
C651       C1010   1.436       .  S
C652       C1006   1.475       .  S
C654        C989   1.496       .  S
Fe655       O671   2.097       .  S
Fe655       O661   2.136       .  S
Fe655       O668   2.124       .  S
Fe655       O660   2.061       .  S
Fe655       O666   1.944       .  S
Fe656       O659   2.048       .  S
Fe656      O1751   2.039       .  S
Fe656       O667   2.045       .  S
Fe656       O672   2.040       .  S
Fe656       O666   1.951       .  S
Fe657       O675   2.116       .  S
Fe657       O662   2.031       .  S
Fe657       O669   2.051       .  S
Fe657       O658   2.096       .  S
Fe657       O666   1.953       .  S
O658        C665   1.270       .  A
O659        C673   1.266       .  A
O660        C665   1.263       .  A
O661        C664   1.287       .  A
O662        C674   1.270       .  A
O663      Fe1744   2.045   1_455  S
O663        C676   1.269       .  A
C664        O669   1.276       .  A
C664       C1026   1.491       .  S
C665        C997   1.476       .  S
O667        C670   1.265       .  A
O668        C670   1.283       .  A
C670        C978   1.494       .  S
O671       C1764   1.273       .  A
O672        C674   1.262       .  A
C673        O675   1.275       .  A
C673       C2070   1.491       .  S
C674        C986   1.439       .  S
C676       O1759   1.276       .  A
C676        C994   1.489       .  S
Fe677       O693   2.103       .  S
Fe677       O683   2.103       .  S
Fe677       O690   2.108       .  S
Fe677       O682   2.117   1_556  S
Fe677       O688   1.958   1_556  S
Fe678       O681   2.059       .  S
Fe678       O685   2.063       .  S
Fe678       O689   2.045       .  S
Fe678       O694   2.055   1_556  S
Fe678       O688   1.964   1_556  S
Fe679       O697   2.028       .  S
Fe679       O684   2.093       .  S
Fe679       O691   2.059       .  S
Fe679       O680   2.057       .  S
Fe679       O688   1.953       .  S
O680        C687   1.277       .  A
O681        C695   1.267       .  A
O682        C687   1.282       .  A
O683        C686   1.272   1_556  A
O684        C696   1.270       .  A
O685        C698   1.267       .  A
C686        O691   1.265       .  A
C686        C961   1.483       .  S
C687        C966   1.485       .  S
O689        C692   1.266       .  A
O690        C692   1.278       .  A
C692        C957   1.477       .  S
O693        C698   1.279       .  A
O694        C696   1.263       .  A
C695        O697   1.269   1_556  A
C695        C970   1.452       .  S
C696        C973   1.481       .  S
C698       C1002   1.488       .  S
Fe699       O715   2.120       .  S
Fe699       O705   2.118       .  S
Fe699       O712   2.114   1_556  S
Fe699       O710   1.950       .  S
Fe700       O703   2.053       .  S
Fe700       O707   2.035       .  S
Fe700       O711   2.045   1_556  S
Fe700       O716   2.048       .  S
Fe700       O710   1.954       .  S
Fe701       O719   2.085       .  S
Fe701       O713   2.049       .  S
Fe701       O710   1.947       .  S
O702        C709   1.268       .  A
O703        C717   1.264       .  A
O704        C709   1.268   1_544  A
O705        C708   1.285       .  A
O707        C720   1.266       .  A
C708        O713   1.277       .  A
C708        C945   1.474       .  S
C709        C958   1.484   1_556  S
O711        C714   1.266       .  A
O712        C714   1.281       .  A
C714       C1054   1.489       .  S
O715        C720   1.278       .  A
O716        C718   1.265       .  A
C717        O719   1.266       .  A
C717        C949   1.476       .  S
C718        C953   1.446       .  S
C720        C962   1.496       .  S
Fe721       O737   2.134       .  S
Fe721       O727   2.076       .  S
Fe721       O734   2.115       .  S
Fe721       O726   2.140       .  S
Fe721       O732   1.930       .  S
Fe722       O725   2.061       .  S
Fe722       O729   2.037       .  S
Fe722       O733   2.048       .  S
Fe722       O738   2.041       .  S
Fe722       O732   1.946       .  S
Fe723       O741   2.010       .  S
Fe723       O728   2.130       .  S
Fe723       O735   2.109       .  S
Fe723       O724   2.046       .  S
Fe723       O732   1.945       .  S
O724        C731   1.272       .  A
O725        C739   1.265       .  A
O726        C731   1.285       .  A
O727        C730   1.271       .  A
O728        C740   1.281       .  A
O729        C742   1.264       .  A
C730        O735   1.276       .  A
C730        C942   1.485       .  S
C731        C990   1.497       .  S
O733        C736   1.267       .  A
O734        C736   1.279       .  A
C736        C937   1.494       .  S
O737        C742   1.286       .  A
O738        C740   1.263       .  A
C739        O741   1.263       .  A
C739       C1042   1.443       .  S
C740       C1018   1.482       .  S
C742        C933   1.489       .  S
Fe743       O759   2.142       .  S
Fe743       O749   2.107       .  S
Fe743       O756   2.071       .  S
Fe743       O754   1.948       .  S
Fe744       O747   2.090       .  S
Fe744       O751   2.043       .  S
Fe744       O755   2.071       .  S
Fe744       O760   2.028       .  S
Fe744       O754   1.973       .  S
Fe745       O763   2.065       .  S
Fe745       O750   2.054       .  S
Fe745       O757   2.068       .  S
Fe745       O754   1.940       .  S
O746        C753   1.272       .  A
O747        C761   1.268       .  A
O748        C753   1.272       .  A
O749        C752   1.277       .  A
O750        C762   1.266       .  A
O751        C764   1.272       .  A
C752        O757   1.268       .  A
C752       C1050   1.495       .  S
C753        C938   1.484       .  S
O755        C758   1.264       .  A
O756        C758   1.268       .  A
C758        C929   1.481       .  S
O759        C764   1.289       .  A
O760        C762   1.260       .  A
C761        O763   1.274       .  A
C761       C1046   1.470       .  S
C762       C1022   1.446       .  S
C764        C941   1.488       .  S
Fe765       O781   2.126       .  S
Fe765       O771   2.069       .  S
Fe765       O778   2.102       .  S
Fe765       O770   2.140       .  S
Fe766       O769   2.043       .  S
Fe766       O773   2.041       .  S
Fe766       O777   2.054       .  S
Fe766       O782   2.051       .  S
Fe766       O776   1.956       .  S
Fe767       O785   2.028       .  S
Fe767       O772   2.101       .  S
Fe767       O779   2.088       .  S
Fe767       O776   1.957       .  S
O768        C775   1.273       .  A
O769        C783   1.262       .  A
O770        C775   1.289       .  A
O771        C774   1.264       .  A
O772        C784   1.272       .  A
C774        C917   1.479       .  S
C775        C925   1.484       .  S
O778        C780   1.275       .  A
C780        C921   1.488       .  S
O781        C786   1.284   1_565  A
O782        C784   1.268       .  A
C783        O785   1.269       .  A
C783        C985   1.440       .  S
C784       C1005   1.482       .  S
Fe787       O803   2.111       .  S
Fe787       O793   2.131       .  S
Fe787       O800   2.099       .  S
Fe787       O792   2.108       .  S
Fe788       O791   2.060       .  S
Fe788       O799   2.042       .  S
Fe788       O804   2.058       .  S
Fe788       O798   1.950       .  S
Fe789       O807   2.093       .  S
Fe789       O794   2.011       .  S
Fe789       O798   1.943       .  S
O790        C797   1.260       .  A
O791        C805   1.265       .  A
O792        C797   1.270       .  A
O793        C796   1.286       .  A
O794        C806   1.267       .  A
O795        C808   1.267   1_545  A
C796        O801   1.274       .  A
C796        C930   1.481       .  S
C797        C922   1.482       .  S
O800        C802   1.277   1_565  A
O803        C808   1.280   1_455  A
O804        C806   1.268       .  A
C805        O807   1.269       .  A
C805        C981   1.482       .  S
C806       C1009   1.439       .  S
C808       C2006   1.480       .  S
Fe809       O825   2.074       .  S
Fe809       O815   2.106       .  S
Fe809       O822   2.135       .  S
Fe809       O814   2.108       .  S
Fe809       O820   1.956       .  S
Fe810       O813   2.023       .  S
Fe810       O817   2.074       .  S
Fe810       O821   2.031       .  S
Fe810       O826   2.073       .  S
Fe810       O820   1.970       .  S
Fe811       O829   2.045       .  S
Fe811       O816   2.057       .  S
Fe811       O823   2.032       .  S
Fe811       O812   2.059       .  S
Fe811       O820   1.939       .  S
O812        C819   1.271       .  A
O813        C827   1.263       .  A
O814        C819   1.282       .  A
O815        C818   1.274       .  A
O816        C828   1.268       .  A
O817        C830   1.266       .  A
C818        O823   1.265       .  A
C818        C910   1.473       .  S
C819        C934   1.487       .  S
O821        C824   1.269   1_455  A
O822        C824   1.285   1_455  A
C824       C2001   1.479       .  S
O825        C830   1.267       .  A
O826        C828   1.266       .  A
C827        O829   1.271       .  A
C827       C1062   1.442       .  S
C828       C1082   1.477       .  S
C830        C965   1.487       .  S
Fe831       O847   2.106       .  S
Fe831       O837   2.137       .  S
Fe831       O844   2.123       .  S
Fe831       O836   2.066       .  S
Fe831       O842   1.941       .  S
Fe832       O835   2.047       .  S
Fe832       O839   2.031       .  S
Fe832       O843   2.043       .  S
Fe832       O848   2.037       .  S
Fe832       O842   1.951       .  S
Fe833       O851   2.112       .  S
Fe833       O838   2.028       .  S
Fe833       O845   2.041       .  S
Fe833       O834   2.091       .  S
Fe833       O842   1.953       .  S
O834        C841   1.268       .  A
O835        C849   1.266       .  A
O836        C841   1.264       .  A
O837        C840   1.289       .  A
O838        C850   1.269       .  A
O839        C852   1.265       .  A
C840        O845   1.274       .  A
C840        C905   1.484       .  S
C841        C914   1.478       .  S
O843        C846   1.265       .  A
O844        C846   1.284       .  A
C846       C1037   1.493       .  S
O847        C852   1.274       .  A
O848        C850   1.261       .  A
C849        O851   1.274       .  A
C849       C1057   1.486       .  S
C850       C1085   1.436       .  S
C852        C909   1.489       .  S
Fe853       O869   2.132       .  S
Fe853       O859   2.136       .  S
Fe853       O866   2.121   1_556  S
Fe853       O858   2.110       .  S
Fe853       O864   1.946       .  S
Fe854       O857   2.049       .  S
Fe854       O861   2.046       .  S
Fe854       O865   2.043   1_556  S
Fe854       O870   2.058       .  S
Fe854       O864   1.957       .  S
Fe855       O873   2.090       .  S
Fe855       O860   2.037       .  S
Fe855       O867   2.049       .  S
Fe855       O856   2.058       .  S
Fe855       O864   1.952       .  S
O856        C863   1.263       .  A
O857        C871   1.263       .  A
O858        C863   1.272       .  A
O859        C862   1.289       .  A
O860        C872   1.270       .  A
O861        C874   1.267       .  A
C862        O867   1.277       .  A
C862        C977   1.485       .  S
C863        C901   1.486       .  S
O865        C868   1.265       .  A
O866        C868   1.283       .  A
C868        C906   1.490       .  S
O869        C874   1.282       .  A
O870        C872   1.268       .  A
C871        O873   1.267       .  A
C871        C950   1.476       .  S
C872        C969   1.448       .  S
C874        C897   1.503       .  S
Fe875       O891   2.122       .  S
Fe875       O888   2.118   1_556  S
Fe875       O880   2.124   1_556  S
Fe875       O886   1.944   1_556  S
Fe876       O879   2.064   1_556  S
Fe876       O883   2.042       .  S
Fe876       O887   2.045       .  S
Fe876       O892   2.046   1_556  S
Fe876       O886   1.951   1_556  S
Fe877       O895   2.022       .  S
Fe877       O882   2.107       .  S
Fe877       O878   2.051       .  S
Fe877       O886   1.943       .  S
O878        C885   1.274       .  A
O879        C893   1.268       .  A
O880        C885   1.283       .  A
O881        C884   1.277   1_556  A
O882        C894   1.272       .  A
O883        C896   1.265       .  A
C884        O889   1.271       .  A
C884        C898   1.495       .  S
C885       C1065   1.479       .  S
O887        C890   1.267       .  A
O888        C890   1.279   1_554  A
C890        C902   1.490       .  S
O891        C896   1.283       .  A
O892        C894   1.261       .  A
C893        O895   1.269       .  A
C893        C954   1.448   1_554  S
C894        C974   1.481       .  S
C896        C926   1.489       .  S
C897        C898   1.357   1_556  D
C897        H899   1.085       .  S
C898        H900   1.088       .  S
C901        C902   1.348       .  D
C901        H903   1.089       .  S
C902        H904   1.085   1_556  S
C905        C906   1.359       .  D
C905        H907   1.086       .  S
C906        H908   1.087       .  S
C909        C910   1.350       .  D
C909        H911   1.085       .  S
C910        H912   1.089       .  S
C913       C1912   1.479       .  S
C913        C914   1.345       .  D
C913       H2003   1.086       .  S
C914        H916   1.087       .  S
H915       C2001   1.086       .  S
C917        C918   1.343       .  D
C917        H919   1.087       .  S
C918       C1896   1.475       .  S
C918       H2008   1.086       .  S
H920       C2006   1.086       .  S
C921        C922   1.346       .  D
C921        H923   1.085       .  S
C922        H924   1.089       .  S
C925        C926   1.358       .  D
C925        H927   1.086       .  S
C926        H928   1.087       .  S
C929        C930   1.354       .  D
C929        H931   1.088       .  S
C930        H932   1.086       .  S
C933        C934   1.361       .  D
C933        H935   1.087       .  S
C934        H936   1.086       .  S
C937        C938   1.354       .  D
C937        H939   1.085       .  S
C938        H940   1.088       .  S
C941        C942   1.349       .  D
C941        H943   1.086       .  S
C942        H944   1.087       .  S
C945        C946   1.354       .  D
C945        H947   1.086       .  S
C949        C950   1.338       .  D
C949        H951   1.087       .  S
C950        H952   1.087       .  S
C953        H955   1.088   1_556  S
C954        H956   1.087       .  S
C957        C958   1.349   1_556  D
C957        H959   1.086       .  S
C958        H960   1.087       .  S
C961        C962   1.352   1_554  D
C961        H963   1.089       .  S
C962        H964   1.085       .  S
C965        C966   1.354       .  D
C965        H967   1.088       .  S
C966        H968   1.086       .  S
C969        C970   1.333       .  D
C969        H971   1.088   1_556  S
C970        H972   1.087       .  S
C973        C974   1.354       .  D
C973        H975   1.087       .  S
C974        H976   1.087       .  S
C977        C978   1.361       .  D
C977        H979   1.086       .  S
C978        H980   1.087       .  S
C981        C982   1.342   1_455  D
C981        H983   1.087       .  S
C982       C1761   1.484       .  S
C982       H2072   1.087       .  S
H984       C2070   1.087       .  S
C985        C986   1.326       .  D
C985        H987   1.088       .  S
C986        H988   1.088       .  S
C989        C990   1.360       .  D
C989        H991   1.088       .  S
C990        H992   1.085       .  S
C993        C994   1.350       .  D
C993        H995   1.089       .  S
C994        H996   1.085       .  S
C997        C998   1.345       .  D
C997        H999   1.087       .  S
C998       H1000   1.086       .  S
C1001      C1002   1.359       .  D
C1001      H1003   1.086       .  S
C1002      H1004   1.088       .  S
C1005      C1006   1.339       .  D
C1005      H1007   1.087       .  S
C1006      H1008   1.086       .  S
C1009      C1010   1.332       .  D
C1009      H1011   1.088       .  S
C1010      H1012   1.087       .  S
C1013      C1014   1.360       .  D
C1013      H1015   1.086       .  S
C1017      C2106   1.344       .  D
C1017      H1019   1.087       .  S
C1018      C2105   1.350       .  D
C1018      H1020   1.087       .  S
C1021      C1566   1.334       .  D
C1021      H1023   1.087       .  S
C1022      C1565   1.339   1_565  D
C1022      H1024   1.087   1_455  S
C1025      C1026   1.355       .  D
C1025      H1027   1.088       .  S
C1026      H1028   1.085       .  S
C1029      C1030   1.345       .  D
C1029      H1031   1.088       .  S
C1030      H1032   1.087       .  S
C1033      C1034   1.349       .  D
C1033      H1035   1.088       .  S
C1034      H1036   1.086       .  S
C1037      C1038   1.361       .  D
C1037      H1039   1.087       .  S
C1038      H1040   1.086       .  S
C1041      C2130   1.332       .  D
C1041      H1043   1.087       .  S
C1042      C2129   1.334       .  D
C1042      H1044   1.088   1_455  S
C1045      C2134   1.361       .  D
C1045      H1047   1.085       .  S
C1046      C2133   1.353       .  D
C1046      H1048   1.085       .  S
C1049      C1050   1.360       .  D
C1050      H1052   1.086       .  S
C1053      C1054   1.357       .  D
C1053      H1055   1.086       .  S
C1054      H1056   1.087       .  S
C1057      C1058   1.341       .  D
C1057      H1059   1.087       .  S
C1058      H1060   1.087       .  S
C1061      C1062   1.332       .  D
C1061      H1063   1.088       .  S
C1062      H1064   1.087       .  S
C1065      C1066   1.358       .  D
C1065      H1067   1.086       .  S
C1069      C1070   1.353       .  D
C1069      H1071   1.088       .  S
C1070      H1072   1.085       .  S
C1073      C1074   1.352       .  D
C1073      H1075   1.085       .  S
C1074      H1076   1.089       .  S
C1077      C1078   1.359       .  D
C1077      H1079   1.087       .  S
C1078      H1080   1.086       .  S
C1081      C1652   1.472   1_455  S
C1081      C1082   1.341       .  D
C1081      H1083   1.086   1_455  S
C1082      H1084   1.087       .  S
C1085      C1086   1.325       .  D
C1085      H1087   1.088       .  S
C1086      H1088   1.088       .  S
Fe1089     O1105   2.081       .  S
Fe1089     O1095   2.125       .  S
Fe1089     O1102   2.147   1_655  S
Fe1089     O1094   2.094       .  S
Fe1089     O1644   1.963   1_545  S
Fe1090     O1093   2.045       .  S
Fe1090     O1097   2.033       .  S
Fe1090     O1106   2.049   1_655  S
Fe1090     O1100   1.947       .  S
Fe1091     O1109   2.016       .  S
Fe1091     O1096   2.094       .  S
Fe1091     O1103   2.083       .  S
Fe1091     O1092   2.023       .  S
Fe1091     O1100   1.950       .  S
O1092      C1643   1.272       .  A
O1093      C1107   1.264       .  A
O1094      C1099   1.276       .  A
O1095      C1098   1.277   1_545  A
O1096      C1108   1.270       .  A
O1097      C1654   1.264       .  A
C1098      O1647   1.265       .  A
C1098      C1613   1.481       .  S
C1099      O1636   1.269   1_545  A
C1099      C1622   1.486       .  S
O1100     Fe1633   1.936       .  S
O1101      C1648   1.272       .  A
O1103      C1642   1.264       .  A
C1104      O1645   1.264   1_545  A
C1104      C1617   1.494       .  S
O1105      C1110   1.268   1_545  A
O1106      C1108   1.267   1_455  A
C1107      O1109   1.268       .  A
C1107      C1630   1.434       .  S
C1110      O1641   1.262       .  A
C1110      C2154   1.487       .  S
Fe1111     O1127   2.122       .  S
Fe1111     O1117   2.137       .  S
Fe1111     O1124   2.122       .  S
Fe1111     O1116   2.099       .  S
Fe1111     O1666   1.951   1_545  S
Fe1112     O1115   2.051       .  S
Fe1112     O1119   2.069       .  S
Fe1112     O1123   2.049       .  S
Fe1112     O1128   2.076       .  S
Fe1112     O1122   1.949       .  S
Fe1113     O1131   2.093       .  S
Fe1113     O1118   2.020       .  S
Fe1113     O1125   2.035       .  S
Fe1113     O1114   2.074       .  S
Fe1113     O1122   1.955       .  S
O1114      C1665   1.261       .  A
O1115      C1129   1.262       .  A
O1116      C1121   1.271       .  A
O1117      C1120   1.287       .  A
O1118      C1130   1.270       .  A
O1119      C1676   1.271       .  A
C1120      O1669   1.272   1_545  A
C1120      C1597   1.482       .  S
C1121      O1658   1.269   1_545  A
C1121      C1618   1.488       .  S
O1122     Fe1655   1.937       .  S
O1123      C1670   1.265       .  A
O1124      C1126   1.282   1_545  A
O1125      C1664   1.277       .  A
C1126      O1667   1.263       .  A
C1126      C2137   1.492       .  S
O1127      C1132   1.280       .  A
O1128      C1130   1.275       .  A
C1129      O1131   1.266       .  A
C1129      C1602   1.481       .  S
C1130      C1605   1.449       .  S
C1132      O1663   1.269   1_545  A
C1132      C1614   1.504       .  S
Fe1133     O1149   2.121       .  S
Fe1133     O1139   2.127       .  S
Fe1133     O1146   2.129       .  S
Fe1133     O1138   2.094       .  S
Fe1133     O1144   1.931       .  S
Fe1134     O1137   2.035       .  S
Fe1134     O1141   2.052       .  S
Fe1134     O1145   2.035       .  S
Fe1134     O1150   2.073       .  S
Fe1134     O1144   1.934       .  S
Fe1135     O1153   2.121       .  S
Fe1135     O1140   2.011       .  S
Fe1135     O1147   2.044       .  S
Fe1135     O1136   2.094       .  S
Fe1135     O1144   1.945       .  S
O1136      C1143   1.274       .  A
O1137      C1151   1.256       .  A
O1138      C1143   1.274       .  A
O1139      C1142   1.283       .  A
O1140      C1152   1.262       .  A
O1141      C1154   1.269       .  A
C1142      O1147   1.271       .  A
C1142      C1582   1.476       .  S
C1143      C1577   1.490       .  S
O1145      C1148   1.264       .  A
O1146      C1148   1.284       .  A
C1148      C1569   1.487       .  S
O1149      C1154   1.280       .  A
O1150      C1152   1.274       .  A
C1151      O1153   1.274       .  A
C1151      C1589   1.475       .  S
C1152      C1585   1.443   1_655  S
C1154      C1574   1.501       .  S
Fe1155     O1171   2.074       .  S
Fe1155     O1705   2.127       .  S
Fe1155     O1168   2.150       .  S
Fe1155     O1160   2.094       .  S
Fe1155     O1166   1.949       .  S
Fe1156     O1159   2.035       .  S
Fe1156     O1163   2.060       .  S
Fe1156     O1167   2.034       .  S
Fe1156     O1172   2.067       .  S
Fe1156     O1166   1.968       .  S
Fe1157     O1175   2.052       .  S
Fe1157     O1162   2.064       .  S
Fe1157     O1713   2.038   1_545  S
Fe1157     O1158   2.072       .  S
Fe1157     O1166   1.954       .  S
O1158      C1165   1.270       .  A
O1159      C1173   1.261       .  A
O1160      C1165   1.276       .  A
O1161     Fe1699   2.106       .  S
O1161      C1164   1.275       .  A
O1162      C1174   1.272       .  A
O1163      C1176   1.261       .  A
C1164      O1169   1.270       .  A
C1164      C1573   1.489       .  S
C1165      C1557   1.486       .  S
O1167      C1170   1.272       .  A
O1168      C1170   1.291       .  A
O1169     Fe1701   2.074       .  S
C1170      C1578   1.488       .  S
O1171      C1176   1.266       .  A
O1172      C1174   1.269       .  A
C1173      O1175   1.266       .  A
C1173      C1565   1.448   1_655  S
C1174      C1561   1.468   1_655  S
C1176      C1621   1.482       .  S
Fe1177     O1193   2.099       .  S
Fe1177     O1183   2.104       .  S
Fe1177     O1190   2.108       .  S
Fe1177     O1182   2.131       .  S
Fe1177     O1188   1.953       .  S
Fe1178     O1181   2.044       .  S
Fe1178     O1185   2.068       .  S
Fe1178     O1189   2.047       .  S
Fe1178     O1194   2.065       .  S
Fe1178     O1188   1.963       .  S
Fe1179     O1197   2.021       .  S
Fe1179     O1184   2.078       .  S
Fe1179     O1191   2.060       .  S
Fe1179     O1180   2.038       .  S
Fe1179     O1188   1.949       .  S
O1180      C1187   1.276       .  A
O1181      C1195   1.266       .  A
O1182      C1187   1.288       .  A
O1183      C1186   1.268       .  A
O1184      C1196   1.264       .  A
O1185      C1198   1.268       .  A
C1186      O1191   1.261       .  A
C1186      C1537   1.486       .  S
C1187      C1545   1.476       .  S
O1189      C1192   1.267       .  A
O1190      C1192   1.279       .  A
C1192      C1542   1.480       .  S
O1193      C1198   1.278       .  A
O1194      C1196   1.266       .  A
C1195      O1197   1.272       .  A
C1195      C1554   1.436       .  S
C1196      C1550   1.483       .  S
C1198      C1533   1.492       .  S
Fe1199     O1215   2.106   1_655  S
Fe1199     O1205   2.148       .  S
Fe1199     O1212   2.122       .  S
Fe1199     O1204   2.077       .  S
Fe1199     O1210   1.931       .  S
Fe1200     O1203   2.044   1_655  S
Fe1200     O1211   2.032       .  S
Fe1200     O1216   2.042       .  S
Fe1200     O1210   1.950       .  S
Fe1201     O1219   2.099       .  S
Fe1201     O1206   2.018       .  S
Fe1201     O1213   2.030       .  S
Fe1201     O1202   2.086       .  S
Fe1201     O1210   1.956       .  S
O1202      C1209   1.265       .  A
O1203      C1217   1.266   1_455  A
O1204      C1209   1.264       .  A
O1205      C1208   1.292       .  A
O1206      C1218   1.269       .  A
O1207      C1220   1.268       .  A
C1208      O1213   1.273       .  A
C1208      C1570   1.484       .  S
C1209      C1541   1.480       .  S
O1211      C1214   1.263       .  A
O1212      C1214   1.283       .  A
C1214      C1522   1.489       .  S
O1216      C1218   1.263       .  A
C1217      O1219   1.269       .  A
C1218      C1530   1.429       .  S
C1220      C1538   1.492       .  S
Fe1221     O1237   2.115       .  S
Fe1221     O1227   2.103       .  S
Fe1221     O1234   2.117       .  S
Fe1221     O1226   2.106   1_556  S
Fe1221     O1232   1.945   1_556  S
Fe1222     O1225   2.061       .  S
Fe1222     O1229   2.039       .  S
Fe1222     O1233   2.046       .  S
Fe1222     O1238   2.047   1_556  S
Fe1222     O1232   1.954   1_556  S
Fe1223     O1241   2.022       .  S
Fe1223     O1228   2.088       .  S
Fe1223     O1235   2.070       .  S
Fe1223     O1224   2.043       .  S
Fe1223     O1232   1.942       .  S
O1224      C1231   1.272       .  A
O1225      C1239   1.266   1_556  A
O1226      C1231   1.279       .  A
O1227      C1230   1.274   1_556  A
O1228      C1240   1.270       .  A
O1229      C1242   1.265       .  A
C1230      O1235   1.268       .  A
C1230      C1505   1.487       .  S
C1231      C1510   1.469       .  S
O1233      C1236   1.267       .  A
O1234      C1236   1.278       .  A
C1236      C1501   1.491       .  S
O1237      C1242   1.281       .  A
O1238      C1240   1.263       .  A
C1239      O1241   1.268       .  A
C1239      C1514   1.450   1_554  S
C1240      C1517   1.472       .  S
C1242      C1546   1.484       .  S
Fe1243     O1259   2.122       .  S
Fe1243     O1249   2.124       .  S
Fe1243     O1256   2.118   1_556  S
Fe1243     O1792   2.116       .  S
Fe1243     O1254   1.944       .  S
Fe1244     O1247   2.053       .  S
Fe1244     O1251   2.044       .  S
Fe1244     O1255   2.048   1_556  S
Fe1244     O1260   2.055       .  S
Fe1244     O1254   1.952       .  S
Fe1245     O1263   2.081       .  S
Fe1245     O1794   2.043       .  S
Fe1245     O1257   2.049       .  S
Fe1245     O1790   2.054   1_545  S
Fe1245     O1254   1.949       .  S
O1246     Fe1789   2.056       .  S
O1246      C1253   1.262       .  A
O1247      C1261   1.262       .  A
O1248     Fe1787   2.112       .  S
O1248      C1253   1.273       .  A
O1249      C1252   1.286       .  A
O1250     Fe1789   2.046       .  S
O1250      C1806   1.274       .  A
O1251      C1264   1.267       .  A
C1252      O1257   1.277       .  A
C1252      C1489   1.476       .  S
C1253      C1502   1.487       .  S
O1255      C1258   1.266       .  A
O1256      C1258   1.282       .  A
C1258      C1598   1.490       .  S
O1259      C1264   1.280       .  A
O1260      C1262   1.269       .  A
C1261      O1263   1.263       .  A
C1261      C1493   1.474       .  S
C1262      O1794   1.273       .  A
C1262      C1497   1.446       .  S
C1264      C1506   1.496       .  S
Fe1265     O1281   2.127       .  S
Fe1265     O1271   2.107       .  S
Fe1265     O1278   2.127       .  S
Fe1265     O1270   2.137       .  S
Fe1265     O1276   1.946       .  S
Fe1266     O1269   2.040       .  S
Fe1266     O1273   2.056       .  S
Fe1266     O1277   2.029       .  S
Fe1266     O1282   2.055       .  S
Fe1266     O1276   1.954       .  S
Fe1267     O1285   2.032       .  S
Fe1267     O1272   2.096       .  S
Fe1267     O1279   2.070       .  S
Fe1267     O1268   2.045       .  S
Fe1267     O1276   1.949       .  S
O1268      C1275   1.274       .  A
O1269      C1283   1.264       .  A
O1270      C1275   1.287       .  A
O1271      C1274   1.273       .  A
O1272      C1284   1.270       .  A
O1273      C1286   1.267       .  A
C1274      O1279   1.267       .  A
C1274      C1486   1.489       .  S
C1275      C1534   1.486       .  S
O1277      C1280   1.264       .  A
O1278      C1280   1.281       .  A
C1280      C1481   1.498       .  S
O1281      C1286   1.284       .  A
O1282      C1284   1.264       .  A
C1283      O1285   1.269       .  A
C1283      C1586   1.435       .  S
C1284      C1562   1.479       .  S
C1286      C1477   1.496       .  S
Fe1287     O1303   2.123       .  S
Fe1287     O1293   2.121       .  S
Fe1287     O1300   2.123       .  S
Fe1287     O1836   2.103       .  S
Fe1287     O1298   1.942       .  S
Fe1288     O1291   2.040       .  S
Fe1288     O1295   2.044       .  S
Fe1288     O1299   2.024       .  S
Fe1288     O1304   2.067       .  S
Fe1288     O1298   1.948       .  S
Fe1289     O1307   2.102       .  S
Fe1289     O1294   2.032       .  S
Fe1289     O1301   2.052       .  S
Fe1289     O1834   2.070       .  S
Fe1289     O1298   1.940       .  S
O1290     Fe1833   2.065       .  S
O1290      C1297   1.271   1_565  A
O1291      C1305   1.260       .  A
O1292     Fe1831   2.099       .  S
O1292      C1297   1.272   1_565  A
O1293      C1296   1.282       .  A
O1294      C1306   1.268       .  A
O1295      C1308   1.266       .  A
C1296      O1301   1.274       .  A
C1296      C1594   1.481       .  S
C1297      C1482   1.485       .  S
O1299      C1302   1.263       .  A
O1300      C1302   1.283       .  A
C1302      C1473   1.481       .  S
O1303      C1308   1.279       .  A
O1304      C1306   1.267       .  A
C1305      O1307   1.273       .  A
C1305      C1590   1.471       .  S
C1306      C1566   1.456       .  S
C1308      C1485   1.495       .  S
Fe1309     O1325   2.075       .  S
Fe1309     O1315   2.131       .  S
Fe1309     O1322   2.163       .  S
Fe1309     O1314   2.092       .  S
Fe1309     O1864   1.954       .  S
Fe1310     O1313   2.033       .  S
Fe1310     O1317   2.042       .  S
Fe1310     O1321   2.039       .  S
Fe1310     O1326   2.054       .  S
Fe1310     O1320   1.955       .  S
Fe1311     O1329   2.019       .  S
Fe1311     O1316   2.099       .  S
Fe1311     O1323   2.087   1_545  S
Fe1311     O1856   2.030   1_545  S
Fe1311     O1320   1.952       .  S
O1312     Fe1855   2.060       .  S
O1312      C1319   1.271       .  A
O1313      C1327   1.261       .  A
O1314      C1319   1.278       .  A
O1315      C1318   1.279       .  A
O1316      C1328   1.271       .  A
O1317      C1874   1.264       .  A
C1318      O1867   1.264       .  A
C1318      C1461   1.486       .  S
C1319      C1469   1.480       .  S
O1320     Fe1853   1.939   1_545  S
O1321      C1868   1.266   1_545  A
O1322      C1324   1.293       .  A
O1323      C1862   1.267       .  A
C1324      O1865   1.269       .  A
C1324      C1465   1.492       .  S
O1325      C1330   1.265       .  A
O1326      C1328   1.268       .  A
C1327      O1329   1.268       .  A
C1327      C1529   1.428       .  S
C1328      C1549   1.484       .  S
C1330      O1861   1.261       .  A
C1330      C2102   1.482       .  S
Fe1331     O1347   2.108       .  S
Fe1331     O1337   2.122       .  S
Fe1331     O1344   2.088       .  S
Fe1331     O1336   2.104       .  S
Fe1331     O1886   1.954       .  S
Fe1332     O1335   2.063       .  S
Fe1332     O1883   2.050       .  S
Fe1332     O1343   2.057       .  S
Fe1332     O1348   2.048       .  S
Fe1332     O1342   1.960       .  S
Fe1333     O1351   2.078       .  S
Fe1333     O1338   2.019       .  S
Fe1333     O1889   2.032   1_545  S
Fe1333     O1878   2.064   1_545  S
Fe1333     O1342   1.946       .  S
O1334     Fe1877   2.075       .  S
O1334      C1341   1.265       .  A
O1335      C1349   1.266       .  A
O1336      C1341   1.269       .  A
O1337      C1340   1.286       .  A
O1338      C1350   1.271       .  A
O1339     Fe1876   2.056       .  S
O1339      C1352   1.269       .  A
C1340      O1345   1.275       .  A
C1340      C1474   1.470       .  S
C1341      C1466   1.493       .  S
O1342     Fe1875   1.953   1_545  S
O1343      C1890   1.268       .  A
O1344      C1346   1.275       .  A
O1345     Fe1877   2.036       .  S
C1346      O1887   1.266       .  A
C1346      C2034   1.479       .  S
O1347      C1352   1.279       .  A
O1348      C1350   1.266       .  A
C1349      O1351   1.265       .  A
C1349      C1525   1.480       .  S
C1350      C1553   1.437       .  S
Fe1353     O1369   2.111       .  S
Fe1353     O1359   2.088       .  S
Fe1353     O1366   2.103       .  S
Fe1353     O1358   2.125       .  S
Fe1353     O1364   1.978       .  S
Fe1354     O1357   2.048       .  S
Fe1354     O1361   2.026       .  S
Fe1354     O1365   2.054       .  S
Fe1354     O1370   2.038       .  S
Fe1354     O1364   1.986       .  S
Fe1355     O1373   2.021       .  S
Fe1355     O1360   2.096       .  S
Fe1355     O1367   2.073       .  S
Fe1355     O1356   2.050       .  S
Fe1355     O1364   1.957       .  S
O1356      C1363   1.269       .  A
O1357      C1371   1.261       .  A
O1358      C1363   1.282       .  A
O1359      C1362   1.269       .  A
O1360      C1372   1.275       .  A
O1361      C1374   1.261       .  A
C1362      O1367   1.271       .  A
C1362      C1454   1.484       .  S
C1363      C1478   1.489       .  S
O1365      C1368   1.267       .  A
O1366      C1368   1.276       .  A
O1369      C1374   1.278       .  A
O1370      C1372   1.264       .  A
C1371      O1373   1.262       .  A
C1371      C1606   1.449       .  S
C1372      C1626   1.462       .  S
C1374      C1509   1.482       .  S
Fe1375     O1391   2.121       .  S
Fe1375     O1381   2.143       .  S
Fe1375     O1388   2.121       .  S
Fe1375     O1380   2.091       .  S
Fe1375     O1386   1.938       .  S
Fe1376     O1379   2.046       .  S
Fe1376     O1383   2.034       .  S
Fe1376     O1387   2.038       .  S
Fe1376     O1392   2.041       .  S
Fe1376     O1386   1.946       .  S
Fe1377     O1395   2.107       .  S
Fe1377     O1382   2.015       .  S
Fe1377     O1389   2.027       .  S
Fe1377     O1378   2.098       .  S
Fe1377     O1386   1.951       .  S
O1378      C1385   1.269       .  A
O1379      C1393   1.265       .  A
O1380      C1385   1.270       .  A
O1381      C1384   1.289       .  A
O1382      C1394   1.266       .  A
O1383      C1396   1.265       .  A
C1384      O1389   1.270       .  A
C1384      C1449   1.482       .  S
C1385      C1458   1.489       .  S
O1387      C1390   1.265       .  A
O1388      C1390   1.282       .  A
C1390      C1581   1.488       .  S
O1391      C1396   1.281       .  A
O1392      C1394   1.262       .  A
C1393      O1395   1.274       .  A
C1393      C1601   1.480       .  S
C1394      C1629   1.431       .  S
C1396      C1453   1.494       .  S
Fe1397     O1413   2.129       .  S
Fe1397     O1403   2.128       .  S
Fe1397     O1410   2.118   1_556  S
Fe1397     O1402   2.120       .  S
Fe1397     O1408   1.948       .  S
Fe1398     O1401   2.053       .  S
Fe1398     O1405   2.034       .  S
Fe1398     O1409   2.046   1_556  S
Fe1398     O1414   2.053       .  S
Fe1398     O1408   1.955       .  S
Fe1399     O1417   2.079       .  S
Fe1399     O1404   2.037       .  S
Fe1399     O1411   2.045       .  S
Fe1399     O1400   2.051       .  S
Fe1399     O1408   1.948       .  S
O1400      C1407   1.261       .  A
O1401      C1415   1.263       .  A
O1402      C1407   1.274       .  A
O1403      C1406   1.287       .  A
O1404      C1416   1.272       .  A
O1405      C1418   1.266       .  A
C1406      O1411   1.276       .  A
C1406      C1521   1.477       .  S
C1407      C1445   1.488       .  S
O1409      C1412   1.265       .  A
O1410      C1412   1.282       .  A
C1412      C1450   1.488       .  S
O1413      C1418   1.281       .  A
O1414      C1416   1.268       .  A
C1415      O1417   1.263       .  A
C1415      C1494   1.474       .  S
C1416      C1513   1.444       .  S
C1418      C1441   1.498       .  S
Fe1419     O1435   2.121       .  S
Fe1419     O1969   2.102       .  S
Fe1419     O1432   2.119       .  S
Fe1419     O1424   2.116   1_556  S
Fe1419     O1430   1.940   1_556  S
Fe1420     O1423   2.064       .  S
Fe1420     O1427   2.033       .  S
Fe1420     O1431   2.045       .  S
Fe1420     O1436   2.039   1_556  S
Fe1420     O1430   1.951   1_556  S
Fe1421     O1439   2.033       .  S
Fe1421     O1426   2.092       .  S
Fe1421     O1977   2.071       .  S
Fe1421     O1422   2.052       .  S
Fe1421     O1430   1.938       .  S
O1422      C1429   1.275       .  A
O1423      C1437   1.267   1_556  A
O1424      C1429   1.282       .  A
O1425     Fe1963   2.105       .  S
O1425      C1428   1.274   1_566  A
O1426      C1438   1.269       .  A
O1427      C1440   1.264       .  A
C1428      O1433   1.267   1_545  A
C1428      C1442   1.486       .  S
C1429      C1609   1.474       .  S
O1431      C1434   1.266       .  A
O1432      C1434   1.278       .  A
O1433     Fe1965   2.064       .  S
C1434      C1446   1.492       .  S
O1435      C1440   1.283       .  A
O1436      C1438   1.259       .  A
C1437      O1439   1.272       .  A
C1437      C1498   1.453   1_554  S
C1438      C1518   1.470       .  S
C1440      C1470   1.484       .  S
C1441      C1442   1.354   1_556  D
C1441      H1443   1.085       .  S
C1442      H1444   1.089       .  S
C1445      C1446   1.347       .  D
C1445      H1447   1.090       .  S
C1446      H1448   1.085   1_556  S
C1449      C1450   1.359       .  D
C1449      H1451   1.086       .  S
C1450      H1452   1.087       .  S
C1453      C1454   1.357       .  D
C1453      H1455   1.085       .  S
C1454      H1456   1.088       .  S
C1457      C1458   1.356       .  D
C1458      H1460   1.087       .  S
C1461      C1462   1.353       .  D
C1461      H1463   1.089       .  S
C1465      C1466   1.353       .  D
C1465      H1467   1.085       .  S
C1466      H1468   1.089       .  S
C1469      C1470   1.359       .  D
C1469      H1471   1.086       .  S
C1470      H1472   1.087       .  S
C1473      C1474   1.355       .  D
C1473      H1475   1.087       .  S
C1474      H1476   1.086       .  S
C1477      C1478   1.361       .  D
C1477      H1479   1.087       .  S
C1478      H1480   1.086       .  S
C1481      C1482   1.359       .  D
C1481      H1483   1.085       .  S
C1482      H1484   1.088       .  S
C1485      C1486   1.352       .  D
C1485      H1487   1.085       .  S
C1486      H1488   1.089       .  S
C1489      C1490   1.354       .  D
C1489      H1491   1.086       .  S
C1490      C1890   1.485       .  S
C1490      H2036   1.088       .  S
H1492      C2034   1.088       .  S
C1493      C1494   1.336       .  D
C1493      H1495   1.087       .  S
C1494      H1496   1.087       .  S
C1497      C2042   1.333   1_545  D
C1497      H1499   1.088   1_556  S
C1498      C2041   1.330       .  D
C1498      H1500   1.087       .  S
C1501      C1502   1.348       .  D
C1501      H1503   1.085   1_556  S
C1502      H1504   1.090       .  S
C1505      C1506   1.352   1_554  D
C1505      H1507   1.089       .  S
C1506      H1508   1.085       .  S
C1509      C1510   1.355       .  D
C1509      H1511   1.087       .  S
C1510      H1512   1.086       .  S
C1513      C1514   1.332       .  D
C1513      H1515   1.088   1_556  S
C1514      H1516   1.087       .  S
C1517      C1518   1.351       .  D
C1517      H1519   1.087       .  S
C1518      H1520   1.087       .  S
C1521      C1522   1.359       .  D
C1521      H1523   1.086       .  S
C1522      H1524   1.087       .  S
C1525      C1526   1.338       .  D
C1525      H1527   1.087       .  S
C1529      C1530   1.325       .  D
C1529      H1531   1.088       .  S
C1530      H1532   1.088       .  S
C1533      C1534   1.358       .  D
C1533      H1535   1.088       .  S
C1534      H1536   1.085       .  S
C1537      C1538   1.351       .  D
C1537      H1539   1.089       .  S
C1538      H1540   1.085       .  S
C1541      C1542   1.346       .  D
C1541      H1543   1.087       .  S
C1542      H1544   1.086       .  S
C1545      C1546   1.356       .  D
C1545      H1547   1.086       .  S
C1546      H1548   1.087       .  S
C1549      C1550   1.339       .  D
C1549      H1551   1.087       .  S
C1550      H1552   1.087       .  S
C1553      C1554   1.327       .  D
C1553      H1555   1.088       .  S
C1554      H1556   1.088       .  S
C1557      C1558   1.360       .  D
C1557      H1559   1.086       .  S
C1558      C1874   1.491       .  S
C1558      H2104   1.087   1_545  S
H1560      C2102   1.088       .  S
C1561      H1563   1.087       .  S
C1562      H1564   1.087       .  S
C1565      H1567   1.087       .  S
C1566      H1568   1.087       .  S
C1569      C1570   1.359       .  D
C1569      H1571   1.087       .  S
C1570      H1572   1.086       .  S
C1573      C1574   1.355       .  D
C1573      H1575   1.088       .  S
C1574      H1576   1.085       .  S
C1577      C1578   1.352       .  D
C1577      H1579   1.088       .  S
C1578      H1580   1.085       .  S
C1581      C1582   1.356       .  D
C1581      H1583   1.087       .  S
C1582      H1584   1.086       .  S
C1585      H1587   1.088       .  S
C1586      H1588   1.088       .  S
C1589      H1591   1.087       .  S
C1590      H1592   1.087       .  S
C1593      C1670   1.491       .  S
C1593      C1594   1.358       .  D
C1593      H2139   1.087       .  S
C1594      H1596   1.086       .  S
H1595      C2137   1.087       .  S
C1597      C1598   1.359       .  D
C1597      H1599   1.086       .  S
C1598      H1600   1.087       .  S
C1601      C1602   1.341       .  D
C1601      H1603   1.087       .  S
C1602      H1604   1.087       .  S
C1605      C1606   1.338       .  D
C1605      H1607   1.088       .  S
C1606      H1608   1.087       .  S
C1609      C1610   1.357       .  D
C1609      H1611   1.086       .  S
C1610      C1654   1.488       .  S
C1610      H2156   1.087       .  S
H1612      C2154   1.087       .  S
C1613      C1614   1.357   1_565  D
C1613      H1615   1.087       .  S
C1614      H1616   1.085       .  S
C1617      C1618   1.354       .  D
C1617      H1619   1.085       .  S
C1618      H1620   1.089   1_545  S
C1621      C1622   1.356       .  D
C1621      H1623   1.087       .  S
C1622      H1624   1.086       .  S
C1625      C1626   1.352       .  D
C1625      H1627   1.084       .  S
C1626      H1628   1.083       .  S
C1629      C1630   1.327       .  D
C1629      H1631   1.088       .  S
C1630      H1632   1.088       .  S
Fe1633     O1649   2.117       .  S
Fe1633     O1639   2.093       .  S
Fe1633     O1646   2.117   1_655  S
Fe1633     O1638   2.146       .  S
Fe1634     O1637   2.025       .  S
Fe1634     O1641   2.059       .  S
Fe1634     O1650   2.055   1_655  S
Fe1634     O1644   1.972       .  S
Fe1635     O1653   2.036       .  S
Fe1635     O1640   2.059       .  S
Fe1635     O1647   2.031       .  S
Fe1635     O1636   2.056       .  S
Fe1635     O1644   1.949       .  S
O1637      C1651   1.260       .  A
O1638      C1643   1.292       .  A
O1639      C1642   1.267       .  A
O1640      C1652   1.270       .  A
C1642      C2157   1.488       .  S
C1643      C2166   1.481       .  S
C1648      C2161   1.478       .  S
O1649      C1654   1.281       .  A
O1650      C1652   1.267   1_455  A
C1651      O1653   1.266       .  A
C1651      C2174   1.439       .  S
Fe1655     O1671   2.105       .  S
Fe1655     O1661   2.150       .  S
Fe1655     O1668   2.110       .  S
Fe1655     O1660   2.087       .  S
Fe1656     O1659   2.057       .  S
Fe1656     O1663   2.040       .  S
Fe1656     O1667   2.045       .  S
Fe1656     O1672   2.057       .  S
Fe1656     O1666   1.949       .  S
Fe1657     O1675   2.101       .  S
Fe1657     O1662   2.015       .  S
Fe1657     O1669   2.039       .  S
Fe1657     O1658   2.079       .  S
Fe1657     O1666   1.947       .  S
O1659      C1673   1.263       .  A
O1660      C1665   1.265       .  A
O1661      C1664   1.293       .  A
O1662      C1674   1.267       .  A
C1664      C2141   1.483       .  S
C1665      C2162   1.483       .  S
O1668      C1670   1.279       .  A
O1671      C1676   1.279       .  A
O1672      C1674   1.268       .  A
C1673      O1675   1.271       .  A
C1673      C2146   1.484       .  S
C1674      C2149   1.439       .  S
C1676      C2158   1.487       .  S
Fe1677     O1693   2.150       .  S
Fe1677     O1683   2.101       .  S
Fe1677     O1690   2.077       .  S
Fe1677     O1682   2.129       .  S
Fe1677     O1688   1.945       .  S
Fe1678     O1681   2.104       .  S
Fe1678     O1685   2.035       .  S
Fe1678     O1689   2.066       .  S
Fe1678     O1694   2.022       .  S
Fe1678     O1688   1.976       .  S
Fe1679     O1697   2.049       .  S
Fe1679     O1684   2.060       .  S
Fe1679     O1691   2.058       .  S
Fe1679     O1680   2.029       .  S
Fe1679     O1688   1.926       .  S
O1680      C1687   1.265       .  A
O1681      C1695   1.265       .  A
O1682      C1687   1.280       .  A
O1683      C1686   1.279       .  A
O1684      C1696   1.274       .  A
O1685      C1698   1.276       .  A
C1686      O1691   1.270       .  A
C1686      C2126   1.484       .  S
C1687      C2121   1.481       .  S
O1689      C1692   1.262       .  A
O1690      C1692   1.268       .  A
C1692      C2113   1.480       .  S
O1693      C1698   1.291       .  A
O1694      C1696   1.265       .  A
C1695      O1697   1.265       .  A
C1695      C2133   1.482   1_655  S
C1696      C2129   1.441   1_655  S
C1698      C2118   1.495       .  S
Fe1699     O1715   2.114       .  S
Fe1699     O1712   2.111       .  S
Fe1699     O1704   2.105       .  S
Fe1699     O1710   1.948       .  S
Fe1700     O1703   2.078       .  S
Fe1700     O1707   2.040       .  S
Fe1700     O1711   2.051       .  S
Fe1700     O1716   2.044       .  S
Fe1700     O1710   1.950       .  S
Fe1701     O1719   2.022       .  S
Fe1701     O1706   2.119       .  S
Fe1701     O1702   2.056       .  S
Fe1701     O1710   1.949       .  S
O1702      C1709   1.277       .  A
O1703      C1717   1.271       .  A
O1704      C1709   1.279       .  A
O1705      C1708   1.280   1_545  A
O1706      C1718   1.274       .  A
O1707      C1720   1.264       .  A
C1708      O1713   1.267       .  A
C1708      C2117   1.484       .  S
C1709      C2101   1.478       .  S
O1711      C1714   1.270       .  A
O1712      C1714   1.277       .  A
C1714      C2122   1.492       .  S
O1715      C1720   1.280       .  A
O1716      C1718   1.259       .  A
C1717      O1719   1.266       .  A
C1717      C2109   1.456   1_655  S
C1718      C2105   1.483   1_655  S
C1720      C2165   1.483       .  S
Fe1721     O1737   2.087       .  S
Fe1721     O1727   2.104       .  S
Fe1721     O1734   2.138       .  S
Fe1721     O1726   2.116       .  S
Fe1721     O1732   1.954       .  S
Fe1722     O1725   2.018       .  S
Fe1722     O1729   2.078       .  S
Fe1722     O1733   2.033       .  S
Fe1722     O1738   2.062       .  S
Fe1722     O1732   1.967       .  S
Fe1723     O1741   2.048       .  S
Fe1723     O1728   2.057       .  S
Fe1723     O1735   2.028       .  S
Fe1723     O1724   2.057       .  S
Fe1723     O1732   1.948       .  S
O1724      C1731   1.271       .  A
O1725      C1739   1.262       .  A
O1726      C1731   1.285       .  A
O1727      C1730   1.272       .  A
O1728      C1740   1.266       .  A
O1729      C1742   1.265       .  A
C1730      O1735   1.263       .  A
C1730      C2081   1.470       .  S
C1731      C2089   1.490       .  S
O1733      C1736   1.268       .  A
O1734      C1736   1.286       .  A
C1736      C2086   1.483       .  S
O1737      C1742   1.271       .  A
O1738      C1740   1.266       .  A
C1739      O1741   1.271       .  A
C1739      C2098   1.439       .  S
C1740      C2094   1.471       .  S
C1742      C2077   1.494       .  S
Fe1743     O1759   2.102   1_655  S
Fe1743     O1749   2.134       .  S
Fe1743     O1756   2.115       .  S
Fe1743     O1748   2.069       .  S
Fe1743     O1754   1.940       .  S
Fe1744     O1747   2.044   1_655  S
Fe1744     O1755   2.031       .  S
Fe1744     O1760   2.058       .  S
Fe1744     O1754   1.939       .  S
Fe1745     O1763   2.111       .  S
Fe1745     O1750   2.014       .  S
Fe1745     O1757   2.029       .  S
Fe1745     O1746   2.101       .  S
Fe1745     O1754   1.950       .  S
O1746      C1753   1.271       .  A
O1747      C1761   1.263   1_455  A
O1748      C1753   1.266       .  A
O1749      C1752   1.286       .  A
O1750      C1762   1.267       .  A
O1751      C1764   1.268       .  A
C1752      O1757   1.272       .  A
C1752      C2114   1.481       .  S
C1753      C2085   1.480       .  S
O1755      C1758   1.263       .  A
O1756      C1758   1.281       .  A
C1758      C2066   1.483       .  S
O1760      C1762   1.268       .  A
C1761      O1763   1.273       .  A
C1762      C2074   1.434       .  S
C1764      C2082   1.483       .  S
Fe1765     O1781   2.121       .  S
Fe1765     O1771   2.109       .  S
Fe1765     O1778   2.117       .  S
Fe1765     O1770   2.112   1_556  S
Fe1765     O1776   1.945   1_556  S
Fe1766     O1769   2.063       .  S
Fe1766     O1773   2.050       .  S
Fe1766     O1777   2.053       .  S
Fe1766     O1782   2.052   1_556  S
Fe1766     O1776   1.957   1_556  S
Fe1767     O1785   2.023       .  S
Fe1767     O1772   2.093       .  S
Fe1767     O1779   2.067       .  S
Fe1767     O1768   2.050       .  S
Fe1767     O1776   1.942       .  S
O1768      C1775   1.273       .  A
O1769      C1783   1.266       .  A
O1770      C1775   1.279       .  A
O1771      C1774   1.276   1_556  A
O1772      C1784   1.272       .  A
O1773      C1786   1.265       .  A
C1774      O1779   1.269       .  A
C1774      C2049   1.486       .  S
C1775      C2054   1.481       .  S
O1777      C1780   1.269       .  A
O1778      C1780   1.279       .  A
C1780      C2045   1.492       .  S
O1781      C1786   1.282       .  A
O1782      C1784   1.264       .  A
C1783      O1785   1.268   1_556  A
C1783      C2058   1.453       .  S
C1784      C2061   1.477       .  S
C1786      C2090   1.490       .  S
Fe1787     O1803   2.124       .  S
Fe1787     O1793   2.116       .  S
Fe1787     O1800   2.113   1_556  S
Fe1787     O1798   1.945       .  S
Fe1788     O1791   2.047       .  S
Fe1788     O1795   2.039       .  S
Fe1788     O1799   2.052   1_556  S
Fe1788     O1804   2.054       .  S
Fe1788     O1798   1.950       .  S
Fe1789     O1807   2.079       .  S
Fe1789     O1801   2.048       .  S
Fe1789     O1798   1.950       .  S
O1790      C1797   1.262       .  A
O1791      C1805   1.261       .  A
O1792      C1797   1.273   1_545  A
O1793      C1796   1.284       .  A
O1795      C1808   1.266       .  A
C1796      O1801   1.276       .  A
C1796      C2033   1.471       .  S
C1797      C2046   1.487       .  S
O1799      C1802   1.267       .  A
O1800      C1802   1.282       .  A
C1802      C2142   1.489       .  S
O1803      C1808   1.279       .  A
O1804      C1806   1.268       .  A
C1805      O1807   1.263       .  A
C1805      C2037   1.469       .  S
C1806      C2041   1.447       .  S
C1808      C2050   1.501       .  S
Fe1809     O1825   2.132       .  S
Fe1809     O1815   2.068       .  S
Fe1809     O1822   2.113       .  S
Fe1809     O1814   2.150       .  S
Fe1809     O1820   1.936       .  S
Fe1810     O1813   2.046       .  S
Fe1810     O1817   2.045       .  S
Fe1810     O1821   2.052       .  S
Fe1810     O1826   2.048       .  S
Fe1810     O1820   1.949       .  S
Fe1811     O1829   2.011       .  S
Fe1811     O1816   2.114       .  S
Fe1811     O1823   2.098       .  S
Fe1811     O1812   2.037       .  S
Fe1811     O1820   1.952       .  S
O1812      C1819   1.272       .  A
O1813      C1827   1.265       .  A
O1814      C1819   1.289       .  A
O1815      C1818   1.266       .  A
O1816      C1828   1.275       .  A
O1817      C1830   1.264       .  A
C1818      O1823   1.271       .  A
C1818      C2030   1.481       .  S
C1819      C2078   1.495       .  S
O1821      C1824   1.269       .  A
O1822      C1824   1.279       .  A
C1824      C2025   1.496       .  S
O1825      C1830   1.285       .  A
O1826      C1828   1.265       .  A
C1827      O1829   1.265       .  A
C1827      C2130   1.428       .  S
C1828      C2106   1.487       .  S
C1830      C2021   1.498       .  S
Fe1831     O1847   2.111       .  S
Fe1831     O1837   2.104       .  S
Fe1831     O1844   2.080       .  S
Fe1831     O1842   1.988       .  S
Fe1832     O1835   2.060       .  S
Fe1832     O1839   2.041       .  S
Fe1832     O1843   2.056       .  S
Fe1832     O1848   2.015       .  S
Fe1832     O1842   2.001       .  S
Fe1833     O1851   2.084       .  S
Fe1833     O1838   2.030       .  S
Fe1833     O1845   2.058       .  S
Fe1833     O1842   1.966       .  S
O1834      C1841   1.270       .  A
O1835      C1849   1.263       .  A
O1836      C1841   1.275       .  A
O1837      C1840   1.278       .  A
O1838      C1850   1.263       .  A
O1839      C1852   1.267       .  A
C1840      O1845   1.268       .  A
C1840      C2138   1.486       .  S
C1841      C2026   1.485       .  S
O1843      C1846   1.263       .  A
O1844      C1846   1.271       .  A
C1846      C2017   1.480       .  S
O1847      C1852   1.279       .  A
O1848      C1850   1.257       .  A
C1849      O1851   1.276       .  A
C1849      C2134   1.468       .  S
C1850      C2110   1.435       .  S
C1852      C2029   1.476       .  S
Fe1853     O1869   2.119       .  S
Fe1853     O1859   2.083       .  S
Fe1853     O1866   2.117       .  S
Fe1853     O1858   2.140       .  S
Fe1854     O1857   2.024       .  S
Fe1854     O1861   2.056       .  S
Fe1854     O1865   2.026       .  S
Fe1854     O1870   2.059       .  S
Fe1854     O1864   1.971       .  S
Fe1855     O1873   2.045       .  S
Fe1855     O1860   2.062       .  S
Fe1855     O1867   2.031       .  S
Fe1855     O1864   1.943       .  S
O1856      C1863   1.272       .  A
O1857      C1871   1.263       .  A
O1858      C1863   1.289       .  A
O1859      C1862   1.267       .  A
O1860      C1872   1.269       .  A
C1862      C2005   1.485       .  S
C1863      C2013   1.482       .  S
O1866      C1868   1.278       .  A
C1868      C2009   1.491       .  S
O1869      C1874   1.282   1_565  A
O1870      C1872   1.264       .  A
C1871      O1873   1.271       .  A
C1871      C2073   1.439       .  S
C1872      C2093   1.470       .  S
Fe1875     O1891   2.098       .  S
Fe1875     O1881   2.132       .  S
Fe1875     O1888   2.098       .  S
Fe1875     O1880   2.097       .  S
Fe1876     O1879   2.063       .  S
Fe1876     O1887   2.051       .  S
Fe1876     O1892   2.058       .  S
Fe1876     O1886   1.960       .  S
Fe1877     O1895   2.095       .  S
Fe1877     O1882   2.014       .  S
Fe1877     O1886   1.951       .  S
O1878      C1885   1.263       .  A
O1879      C1893   1.264       .  A
O1880      C1885   1.267       .  A
O1881      C1884   1.288       .  A
O1882      C1894   1.269       .  A
O1883      C1896   1.267   1_545  A
C1884      O1889   1.275       .  A
C1884      C2018   1.477       .  S
C1885      C2010   1.484       .  S
O1888      C1890   1.278   1_565  A
O1891      C1896   1.276       .  A
O1892      C1894   1.270       .  A
C1893      O1895   1.268       .  A
C1893      C2069   1.488       .  S
C1894      C2097   1.439       .  S
Fe1897     O1913   2.076       .  S
Fe1897     O1903   2.104       .  S
Fe1897     O1910   2.144       .  S
Fe1897     O1902   2.106       .  S
Fe1897     O1908   1.950       .  S
Fe1898     O1901   2.026       .  S
Fe1898     O1905   2.062       .  S
Fe1898     O1909   2.032       .  S
Fe1898     O1914   2.066       .  S
Fe1898     O1908   1.968       .  S
Fe1899     O1917   2.054       .  S
Fe1899     O1904   2.062       .  S
Fe1899     O1911   2.027       .  S
Fe1899     O1900   2.077       .  S
Fe1899     O1908   1.933       .  S
O1900      C1907   1.275       .  A
O1901      C1915   1.265       .  A
O1902      C1907   1.282       .  A
O1903      C1906   1.274       .  A
O1904      C1916   1.270       .  A
O1905      C1918   1.261       .  A
C1906      O1911   1.263       .  A
C1906      C1998   1.470       .  S
C1907      C2022   1.492       .  S
O1909      C1912   1.271       .  A
O1910      C1912   1.289       .  A
O1913      C1918   1.265       .  A
O1914      C1916   1.262       .  A
C1915      O1917   1.274       .  A
C1915      C2150   1.442       .  S
C1916      C2170   1.480       .  S
C1918      C2053   1.483       .  S
Fe1919     O1935   2.090       .  S
Fe1919     O1925   2.140       .  S
Fe1919     O1932   2.123       .  S
Fe1919     O1924   2.059       .  S
Fe1919     O1930   1.936       .  S
Fe1920     O1923   2.047       .  S
Fe1920     O1927   2.049       .  S
Fe1920     O1931   2.035       .  S
Fe1920     O1936   2.061       .  S
Fe1920     O1930   1.939       .  S
Fe1921     O1939   2.118       .  S
Fe1921     O1926   2.009       .  S
Fe1921     O1933   2.028       .  S
Fe1921     O1922   2.100       .  S
Fe1921     O1930   1.949       .  S
O1922      C1929   1.270       .  A
O1923      C1937   1.263       .  A
O1924      C1929   1.262       .  A
O1925      C1928   1.288       .  A
O1926      C1938   1.265       .  A
O1927      C1940   1.271       .  A
C1928      O1933   1.271       .  A
C1928      C1993   1.479       .  S
C1929      C2002   1.475       .  S
O1931      C1934   1.262       .  A
O1932      C1934   1.283       .  A
C1934      C2125   1.488       .  S
O1935      C1940   1.273       .  A
O1936      C1938   1.269       .  A
C1937      O1939   1.274       .  A
C1937      C2145   1.487       .  S
C1938      C2173   1.434       .  S
C1940      C1997   1.485       .  S
Fe1941     O1957   2.122       .  S
Fe1941     O1947   2.121       .  S
Fe1941     O1954   2.113   1_556  S
Fe1941     O1946   2.112       .  S
Fe1941     O1952   1.945       .  S
Fe1942     O1945   2.049       .  S
Fe1942     O1949   2.041       .  S
Fe1942     O1953   2.045   1_556  S
Fe1942     O1958   2.058       .  S
Fe1942     O1952   1.952       .  S
Fe1943     O1961   2.076       .  S
Fe1943     O1948   2.038       .  S
Fe1943     O1955   2.042       .  S
Fe1943     O1944   2.055       .  S
Fe1943     O1952   1.949       .  S
O1944      C1951   1.262       .  A
O1945      C1959   1.262       .  A
O1946      C1951   1.273       .  A
O1947      C1950   1.284       .  A
O1948      C1960   1.271       .  A
O1949      C1962   1.266       .  A
C1950      O1955   1.274       .  A
C1950      C2065   1.472       .  S
C1951      C1989   1.486       .  S
O1953      C1956   1.266       .  A
O1954      C1956   1.281       .  A
C1956      C1994   1.484       .  S
O1957      C1962   1.279       .  A
O1958      C1960   1.269       .  A
C1959      O1961   1.263       .  A
C1959      C2038   1.467       .  S
C1960      C2057   1.447       .  S
C1962      C1985   1.496       .  S
Fe1963     O1979   2.120       .  S
Fe1963     O1976   2.116       .  S
Fe1963     O1968   2.114   1_556  S
Fe1963     O1974   1.951   1_556  S
Fe1964     O1967   2.066       .  S
Fe1964     O1971   2.041       .  S
Fe1964     O1975   2.041       .  S
Fe1964     O1980   2.043   1_556  S
Fe1964     O1974   1.962   1_556  S
Fe1965     O1983   2.026       .  S
Fe1965     O1970   2.099       .  S
Fe1965     O1966   2.060       .  S
Fe1965     O1974   1.950       .  S
O1966      C1973   1.278       .  A
O1967      C1981   1.267   1_556  A
O1968      C1973   1.282       .  A
O1969      C1972   1.273   1_556  A
O1970      C1982   1.270       .  A
O1971      C1984   1.264       .  A
C1972      O1977   1.268       .  A
C1972      C1986   1.486       .  S
C1973      C2153   1.483       .  S
O1975      C1978   1.266       .  A
O1976      C1978   1.278       .  A
C1978      C1990   1.488       .  S
O1979      C1984   1.282       .  A
O1980      C1982   1.260       .  A
C1981      O1983   1.270       .  A
C1981      C2042   1.455   1_554  S
C1982      C2062   1.476       .  S
C1984      C2014   1.487       .  S
C1985      C1986   1.353   1_556  D
C1985      H1987   1.085       .  S
C1986      H1988   1.089       .  S
C1989      C1990   1.346       .  D
C1989      H1991   1.090       .  S
C1990      H1992   1.085   1_556  S
C1993      C1994   1.357       .  D
C1993      H1995   1.086       .  S
C1994      H1996   1.087       .  S
C1997      C1998   1.346       .  D
C1997      H1999   1.086       .  S
C1998      H2000   1.089       .  S
C2001      C2002   1.344       .  D
C2002      H2004   1.087       .  S
C2005      C2006   1.348       .  D
C2005      H2007   1.087       .  S
C2009      C2010   1.352       .  D
C2009      H2011   1.085       .  S
C2010      H2012   1.089       .  S
C2013      C2014   1.359       .  D
C2013      H2015   1.086       .  S
C2014      H2016   1.087       .  S
C2017      C2018   1.354       .  D
C2017      H2019   1.088       .  S
C2018      H2020   1.086       .  S
C2021      C2022   1.364       .  D
C2021      H2023   1.087       .  S
C2022      H2024   1.086       .  S
C2025      C2026   1.353       .  D
C2025      H2027   1.085       .  S
C2026      H2028   1.089       .  S
C2029      C2030   1.344       .  D
C2029      H2031   1.086       .  S
C2030      H2032   1.087       .  S
C2033      C2034   1.351       .  D
C2033      H2035   1.086       .  S
C2037      C2038   1.335       .  D
C2037      H2039   1.087       .  S
C2038      H2040   1.087       .  S
C2041      H2043   1.088       .  S
C2042      H2044   1.087       .  S
C2045      C2046   1.347       .  D
C2045      H2047   1.085   1_556  S
C2046      H2048   1.090       .  S
C2049      C2050   1.354   1_554  D
C2049      H2051   1.088       .  S
C2050      H2052   1.085       .  S
C2053      C2054   1.353       .  D
C2053      H2055   1.088       .  S
C2054      H2056   1.086       .  S
C2057      C2058   1.334       .  D
C2057      H2059   1.088   1_556  S
C2058      H2060   1.087       .  S
C2061      C2062   1.352       .  D
C2061      H2063   1.087       .  S
C2062      H2064   1.087       .  S
C2065      C2066   1.355       .  D
C2065      H2067   1.086       .  S
C2066      H2068   1.087       .  S
C2069      C2070   1.345       .  D
C2069      H2071   1.087       .  S
C2073      C2074   1.332       .  D
C2073      H2075   1.088       .  S
C2074      H2076   1.088       .  S
C2077      C2078   1.361       .  D
C2077      H2079   1.088       .  S
C2078      H2080   1.085       .  S
C2081      C2082   1.346       .  D
C2081      H2083   1.090       .  S
C2082      H2084   1.085       .  S
C2085      C2086   1.347       .  D
C2085      H2087   1.087       .  S
C2086      H2088   1.086       .  S
C2089      C2090   1.362       .  D
C2089      H2091   1.086       .  S
C2090      H2092   1.087       .  S
C2093      C2094   1.337       .  D
C2093      H2095   1.087       .  S
C2094      H2096   1.087       .  S
C2097      C2098   1.332       .  D
C2097      H2099   1.088       .  S
C2098      H2100   1.088       .  S
C2101      C2102   1.352       .  D
C2101      H2103   1.086       .  S
C2105      H2107   1.088       .  S
C2106      H2108   1.087       .  S
C2109      H2111   1.087       .  S
C2110      H2112   1.087       .  S
C2113      C2114   1.354       .  D
C2113      H2115   1.088       .  S
C2114      H2116   1.086       .  S
C2117      C2118   1.351       .  D
C2117      H2119   1.089       .  S
C2118      H2120   1.085       .  S
C2121      C2122   1.347       .  D
C2121      H2123   1.089       .  S
C2122      H2124   1.085       .  S
C2125      C2126   1.361       .  D
C2125      H2127   1.087       .  S
C2126      H2128   1.086       .  S
C2129      H2131   1.088       .  S
C2130      H2132   1.088       .  S
C2133      H2135   1.086       .  S
C2134      H2136   1.082       .  S
C2137      C2138   1.361       .  D
C2138      H2140   1.086       .  S
C2141      C2142   1.358       .  D
C2141      H2143   1.086       .  S
C2142      H2144   1.087       .  S
C2145      C2146   1.344       .  D
C2145      H2147   1.086       .  S
C2146      H2148   1.087       .  S
C2149      C2150   1.334       .  D
C2149      H2151   1.088       .  S
C2150      H2152   1.087       .  S
C2153      C2154   1.355       .  D
C2153      H2155   1.086       .  S
C2157      C2158   1.349       .  D
C2157      H2159   1.087       .  S
C2158      H2160   1.086       .  S
C2161      C2162   1.345       .  D
C2161      H2163   1.086       .  S
C2162      H2164   1.088       .  S
C2165      C2166   1.357       .  D
C2165      H2167   1.087       .  S
C2166      H2168   1.086       .  S
C2169      C2170   1.342       .  D
C2169      H2171   1.087       .  S
C2170      H2172   1.086       .  S
C2173      C2174   1.334       .  D
C2173      H2175   1.088       .  S
C2174      H2176   1.088       .  S
