geometry optimzed in LAMMPS
_audit_creation_date              2020-11-30 
_audit_creation_method            'lammps2cif' 
_symmetry_space_group_name_H-M    'P1' 
_symmetry_Int_Tables_number       1 
_symmetry_cell_setting            triclinic 
loop_ 
_symmetry_equiv_pos_as_xyz 
  x,y,z 
_cell_length_a                    43.40636445888669 
_cell_length_b                    43.3072011574163 
_cell_length_c                    41.32983702961792 
_cell_angle_alpha                 90.08409388944742 
_cell_angle_beta                  91.65335097740278 
_cell_angle_gamma                 90.08237095145105 
loop_ 
_atom_site_label 
_atom_site_type_symbol 
_atom_site_fract_x 
_atom_site_fract_y 
_atom_site_fract_z 
_atom_site_charge 
O1          O  0.48751945  0.50885608  0.29676719    -0.82930
C2          C  0.38188563  0.00927334  0.22466042     0.96420
O3          O  0.39740340  0.02761380  0.24239760    -0.72050
O4          O  0.43494417  0.04109191  0.29046131    -0.75640
Al5        Al  0.44086997  0.02950001  0.24570455     1.48980
C6          C  0.42254215  0.02484365  0.31208543     0.91670
O7          O  0.43417092  0.43779809  0.29197642    -0.81860
O8          O  0.46094399  0.43217880  0.23249165    -0.75420
Al9        Al  0.45868242  0.47521066  0.29074355     1.90120
O10         O  0.40225657  0.44681739  0.25150881    -0.74490
O11         O  0.45729963  0.47842276  0.19309793    -0.74340
O12         O  0.39561778  0.48853676  0.20892497    -0.80000
O13         O  0.44428404  0.02671676  0.19819572    -0.78200
O14         O  0.44365236  0.48922891  0.25317115    -1.14340
O15         O  0.48429055  0.03331082  0.24988870    -0.73530
C16         C  0.49964833  0.02515318  0.27504822     0.97180
C17         C  0.41126462  0.42993920  0.27430691     0.93580
Al18       Al  0.43016230  0.46337293  0.22354260     1.55560
O19         O  0.42723858  0.49604784  0.31320924    -0.78150
C20         C  0.45226327  0.00424087  0.18045825     0.97750
C21         C  0.48518691  0.43120037  0.25026156     0.92630
O22         O  0.49079548  0.45220036  0.27106779    -0.83470
O23         O  0.22628652  0.43908347  0.24800790    -0.82930
C24         C  0.13080888  0.01744181  0.28374234     0.96420
O25         O  0.14049830  0.49565844  0.30172648    -0.72050
O26         O  0.13776026  0.45013641  0.26162811    -0.75640
Al27       Al  0.16917765  0.46339649  0.29001086     1.48980
C28         C  0.14390183  0.43092238  0.24018079     0.91670
O29         O  0.17268672  0.49025943  0.19764113    -0.81860
O30         O  0.23601444  0.02102727  0.26185909    -0.75420
Al31       Al  0.19902865  0.46579763  0.22414933     1.90120
O32         O  0.18741345  0.03476824  0.21812011    -0.74490
O33         O  0.19565133  0.02463350  0.31179850    -0.74340
O34         O  0.14885622  0.03126994  0.26524235    -0.80000
O35         O  0.19968308  0.47505221  0.32043082    -0.78200
O36         O  0.18691384  0.48466699  0.25944692    -1.14340
O37         O  0.19307092  0.42604095  0.28480432    -0.73530
C38         C  0.21746745  0.42078166  0.26973989     0.97180
C39         C  0.17319048  0.01939083  0.19615266     0.93580
Al40       Al  0.19202394  0.02510568  0.26406975     1.55560
O41         O  0.16760842  0.43465192  0.22350989    -0.78150
C42         C  0.20002717  0.00211624  0.33110529     0.97750
C43         C  0.24907876  0.00862415  0.23797957     0.92630
O44         O  0.23357330  0.49231658  0.21790060    -0.83470
O45         O  0.43085332  0.33976686  0.49671976    -0.82930
C46         C  0.36078133  0.24035983  0.54017013     0.96420
O47         O  0.38231032  0.25242652  0.55744009    -0.72050
O48         O  0.42717284  0.25116857  0.51815561    -0.75640
Al49       Al  0.41211830  0.28291413  0.54401129     1.48980
C50         C  0.44603723  0.25855616  0.49717694     0.91670
O51         O  0.38273592  0.27859352  0.45254803    -0.81860
O52         O  0.34993047  0.34471827  0.51037291    -0.75420
Al53       Al  0.40582969  0.30892624  0.47577855     1.90120
O54         O  0.33808433  0.29274163  0.47127326    -0.74490
O55         O  0.34996812  0.30651147  0.56409263    -0.74340
O56         O  0.34484491  0.25720187  0.52137372    -0.80000
O57         O  0.39929810  0.31364602  0.57207408    -0.78200
O58         O  0.38894138  0.29769271  0.51226334    -1.14340
O59         O  0.44702288  0.30966606  0.53665870    -0.73530
C60         C  0.45053808  0.33310261  0.51882530     0.97180
C61         C  0.35360164  0.27751918  0.45110122     0.93580
Al62       Al  0.34847199  0.30054855  0.51662190     1.55560
O63         O  0.43998043  0.28065516  0.47815729    -0.78150
C64         C  0.37276839  0.31278523  0.58300008     0.97750
C65         C  0.36052515  0.35694227  0.48493958     0.92630
O66         O  0.37631875  0.34079271  0.46603204    -0.83470
O67         O  0.37850070  0.09033269  0.54684799    -0.82930
C68         C  0.36006703  0.48987042  0.47148932     0.96420
O69         O  0.34450649  0.00778208  0.48859948    -0.72050
O70         O  0.33842297  0.04387867  0.53818709    -0.75640
Al71       Al  0.35040939  0.05098692  0.49368301     1.48980
C72         C  0.35285763  0.02839991  0.55993831     0.91670
O73         O  0.44031511  0.02735733  0.54085360    -0.81860
O74         O  0.44968360  0.05547964  0.48292884    -0.75420
Al75       Al  0.40691183  0.05710486  0.53987202     1.90120
O76         O  0.42482759  0.99808563  0.50138394    -0.74490
O77         O  0.40397860  0.05990033  0.44273923    -0.74340
O78         O  0.38304410  0.50042312  0.45669580    -0.80000
O79         O  0.35395786  0.05684763  0.44637342    -0.78200
O80         O  0.39040031  0.04632585  0.50186956    -1.14340
O81         O  0.35388902  0.09496779  0.49993456    -0.73530
C82         C  0.36431016  0.10699703  0.52618165     0.97180
C83         C  0.44511194  0.00492956  0.52205279     0.93580
Al84       Al  0.41370404  0.02964363  0.47286190     1.55560
O85         O  0.38200897  0.02813332  0.56106943    -0.78150
C86         C  0.37772147  0.06164647  0.42970167     0.97750
C87         C  0.45327236  0.07966394  0.50003651     0.92630
O88         O  0.43345368  0.08653632  0.52082432    -0.83470
O89         O  0.23411457  0.24956257  0.80139246    -0.82930
C90         C  0.13005802  0.26306788  0.72735109     0.96420
O91         O  0.14760586  0.27926128  0.74528089    -0.72050
O92         O  0.18497968  0.28697680  0.79484551    -0.75640
Al93       Al  0.19107076  0.27566409  0.74995678     1.48980
C94         C  0.17075270  0.27165574  0.81597519     0.91670
O95         O  0.17422521  0.18387938  0.79394060    -0.81860
O96         O  0.20065080  0.17660003  0.73545951    -0.75420
Al97       Al  0.20203922  0.21922808  0.79398204     1.90120
O98         O  0.14273723  0.19815748  0.75559523    -0.74490
O99         O  0.20079088  0.22313628  0.69636997    -0.74340
O100        O  0.14107293  0.24024280  0.71223749    -0.80000
O101        O  0.19574743  0.27296692  0.70288180    -0.78200
O102        O  0.18899234  0.23532363  0.75659904    -1.14340
O103        O  0.23490847  0.27451240  0.75525248    -0.73530
C104        C  0.24892374  0.26448811  0.78042976     0.97180
C105        C  0.15152521  0.17788016  0.77515759     0.93580
Al106      Al  0.17253465  0.21127811  0.72687717     1.55560
O107        O  0.17243081  0.24248977  0.81636720    -0.78150
C108        C  0.20110552  0.24988108  0.68489333     0.97750
C109        C  0.22487018  0.17354275  0.75326779     0.92630
O110        O  0.23208332  0.19412012  0.77395392    -0.83470
O111        O  0.48048658  0.19213124  0.74176764    -0.82930
C112        C  0.38221239  0.26015941  0.79065751     0.96420
O113        O  0.39453437  0.23757317  0.80554573    -0.72050
O114        O  0.39273270  0.19486097  0.76293755    -0.75640
Al115      Al  0.42482986  0.20876860  0.79002212     1.48980
C116        C  0.39890011  0.17682481  0.74047041     0.91670
O117        O  0.41822368  0.24081312  0.70041354    -0.81860
O118        O  0.48508826  0.27265598  0.76063076    -0.75420
Al119      Al  0.44911897  0.21740288  0.72229595     1.90120
O120        O  0.43200807  0.28516926  0.72220114    -0.74490
O121        O  0.44871372  0.27058099  0.81404255    -0.74340
O122        O  0.39821015  0.27659818  0.77232297    -0.80000
O123        O  0.45587544  0.22099299  0.81933936    -0.78200
O124        O  0.43865868  0.23313374  0.75989663    -1.14340
O125        O  0.45183408  0.17434932  0.78058872    -0.73530
C126        C  0.47544890  0.17212589  0.76333193     0.97180
C127        C  0.41629170  0.26990168  0.70119269     0.93580
Al128      Al  0.44128185  0.27348582  0.76688909     1.55560
O129        O  0.42097045  0.18296950  0.72225187    -0.78150
C130        C  0.45535706  0.24736620  0.83168689     0.97750
C131        C  0.49704980  0.26263257  0.73489164     0.92630
O132        O  0.48061270  0.24757595  0.71457899    -0.83470
O133        O  0.13250959  0.34134360  0.04742991    -0.82930
C134        C  0.11129220  0.23735196  0.97617594     0.96420
O135        O  0.09668274  0.25530326  0.99416713    -0.72050
O136        O  0.09315371  0.29221588  0.04373066    -0.75640
Al137      Al  0.10204354  0.29868518  0.99815018     1.48980
C138        C  0.10971578  0.27897787  0.06558685     0.91670
O139        O  0.19465062  0.27992220  0.04024106    -0.81860
O140        O  0.20045255  0.30352729  0.98093887    -0.75420
Al141      Al  0.16100971  0.30884196  0.03986091     1.90120
O142        O  0.17805720  0.24718458  0.00414060    -0.74490
O143        O  0.15269847  0.30581206  0.94325336    -0.74340
O144        O  0.13407323  0.24731544  0.96091423    -0.80000
O145        O  0.10296543  0.30382567  0.95063622    -0.78200
O146        O  0.14243356  0.29519064  0.00390522    -1.14340
O147        O  0.10417649  0.34287500  0.00282710    -0.73530
C148        C  0.11572485  0.35634822  0.02768474     0.97180
C149        C  0.19868794  0.25563177  0.02401459     0.93580
Al150      Al  0.16456946  0.27727738  0.97440953     1.55560
O151        O  0.13873296  0.28087509  0.06509595    -0.78150
C152        C  0.12563774  0.30786286  0.93219424     0.97750
C153        C  0.20375030  0.32931463  0.99515784     0.92630
O154        O  0.18508074  0.33779252  0.01644654    -0.83470
O155        O  0.18140893  0.08985900  0.98831491    -0.82930
C156        C  0.11365912  0.48961402  0.03524458     0.96420
O157        O  0.13549078  0.50209859  0.05183857    -0.72050
O158        O  0.17730428  0.00201028  0.01088904    -0.75640
Al159      Al  0.16423269  0.03352860  0.03747978     1.48980
C160        C  0.19774953  0.00923788  0.99198775     0.91670
O161        O  0.13319146  0.02742253  0.94682220    -0.81860
O162        O  0.10048661  0.09224107  0.00569010    -0.75420
Al163      Al  0.15644869  0.05838112  0.96906081     1.90120
O164        O  0.08889311  0.04147897  0.96658393    -0.74490
O165        O  0.10247407  0.05503062  0.05907171    -0.74340
O166        O  0.09747401  0.00591876  0.01626647    -0.80000
O167        O  0.15162612  0.06416905  0.06581199    -0.78200
O168        O  0.14037435  0.04752834  0.00627713    -1.14340
O169        O  0.19879642  0.06159488  0.02901218    -0.73530
C170        C  0.20185905  0.08438014  0.00993156     0.97180
C171        C  0.10404358  0.02668407  0.94582202     0.93580
Al172      Al  0.10006247  0.04904323  0.01161018     1.55560
O173        O  0.19202566  0.03031975  0.97141702    -0.78150
C174        C  0.12547428  0.06188357  0.07750820     0.97750
C175        C  0.10986873  0.10519517  0.98023388     0.92630
O176        O  0.12595285  0.09021871  0.96031377    -0.83470
O177        O  0.14078784  0.14539635  0.54960266    -0.82930
C178        C  0.15641732  0.24468819  0.47308777     0.96420
O179        O  0.17225989  0.22819906  0.49231441    -0.72050
O180        O  0.18006397  0.19303312  0.54287241    -0.75640
Al181      Al  0.16828289  0.18507439  0.49792866     1.48980
C182        C  0.16530773  0.20831153  0.56357346     0.91670
O183        O  0.07839470  0.20810598  0.53847256    -0.81860
O184        O  0.06888496  0.17621855  0.48080977    -0.75420
Al185      Al  0.11182212  0.17841691  0.54064867     1.90120
O186        O  0.09125622  0.23540391  0.49689052    -0.74490
O187        O  0.11608961  0.17079858  0.44426622    -0.74340
O188        O  0.13441884  0.23243653  0.45654376    -0.80000
O189        O  0.16557056  0.17816260  0.45078794    -0.78200
O190        O  0.12799295  0.18836363  0.50332629    -1.14340
O191        O  0.16630565  0.14161023  0.50454922    -0.73530
C192        C  0.15593655  0.12927122  0.52991814     0.97180
C193        C  0.07281949  0.22983027  0.51872581     0.93580
Al194      Al  0.10440272  0.20255116  0.47171992     1.55560
O195        O  0.13622270  0.20834678  0.56250264    -0.78150
C196        C  0.14241555  0.17104267  0.43274337     0.97750
C197        C  0.06538379  0.15359650  0.49993270     0.92630
O198        O  0.08535188  0.14792767  0.52194733    -0.83470
O199        O  0.08282687  0.39524609  0.49192535    -0.82930
C200        C  0.15451910  0.99605525  0.53573877     0.96420
O201        O  0.13242604  0.48478766  0.55130221    -0.72050
O202        O  0.08771780  0.48462684  0.50946118    -0.75640
Al203      Al  0.10264476  0.45396677  0.53737608     1.48980
C204        C  0.06798264  0.47692409  0.48839088     0.91670
O205        O  0.12889122  0.45474548  0.44671130    -0.81860
O206        O  0.16453654  0.39137697  0.50702770    -0.75420
Al207      Al  0.10696358  0.42532264  0.47040060     1.90120
O208        O  0.17451210  0.44309771  0.46742150    -0.74490
O209        O  0.16528169  0.42983497  0.56015726    -0.74340
O210        O  0.16960231  0.47891687  0.51736607    -0.80000
O211        O  0.11588588  0.42457750  0.56726383    -0.78200
O212        O  0.12507397  0.43797978  0.50702220    -1.14340
O213        O  0.06762167  0.42680496  0.52994595    -0.73530
C214        C  0.06403700  0.40212236  0.51369203     0.97180
C215        C  0.15780813  0.45753548  0.44662956     0.93580
Al216      Al  0.16565173  0.43553036  0.51267206     1.55560
O217        O  0.07289344  0.45370373  0.47073485    -0.78150
C218        C  0.14291442  0.42455807  0.57862567     0.97750
C219        C  0.15324235  0.37813762  0.48185877     0.92630
O220        O  0.13622538  0.39327010  0.46229405    -0.83470
O221        O  0.28598652  0.48048429  0.79318182    -0.82930
C222        C  0.38629721  0.47034949  0.71953124     0.96420
O223        O  0.37027005  0.45352450  0.73735881    -0.72050
O224        O  0.33506258  0.44331187  0.78629478    -0.75640
Al225      Al  0.32691548  0.45571547  0.74154821     1.48980
C226        C  0.35022559  0.45836163  0.80786047     0.91670
O227        O  0.34569713  0.04633886  0.78773633    -0.81860
O228        O  0.31469731  0.05494906  0.72924027    -0.75420
Al229      Al  0.31766081  0.01115993  0.78699221     1.90120
O230        O  0.37385916  0.03408960  0.74732568    -0.74490
O231        O  0.31168413  0.00857974  0.68978056    -0.74340
O232        O  0.37345821  0.99244425  0.70406330    -0.80000
O233        O  0.32031869  0.45918567  0.69418687    -0.78200
O234        O  0.32852997  0.99602330  0.74917719    -1.14340
O235        O  0.28333147  0.45583395  0.74659373    -0.73530
C236        C  0.27049074  0.46519677  0.77200199     0.97180
C237        C  0.36726877  0.05280533  0.76890224     0.93580
Al238      Al  0.34232482  0.02076838  0.71955012     1.55560
O239        O  0.34852469  0.48747645  0.80875898    -0.78150
C240        C  0.31329207  0.48251980  0.67683743     0.97750
C241        C  0.29181754  0.05745447  0.74754426     0.92630
O242        O  0.28638945  0.03678650  0.76825040    -0.83470
O243        O  0.04065119  0.04185713  0.73957970    -0.82930
C244        C  0.13844096  0.46768042  0.78491867     0.96420
O245        O  0.12819542  0.99033491  0.80063943    -0.72050
O246        O  0.13020523  0.03338732  0.75825678    -0.75640
Al247      Al  0.09905936  0.02111481  0.78592292     1.48980
C248        C  0.12298378  0.05365773  0.73794581     0.91670
O249        O  0.09821410  0.49186429  0.69558429    -0.81860
O250        O  0.03324475  0.46128424  0.75468326    -0.75420
Al251      Al  0.06964130  0.01599214  0.71854623     1.90120
O252        O  0.08374306  0.44752239  0.71601485    -0.74490
O253        O  0.07180630  0.46028301  0.80801416    -0.74340
O254        O  0.12048183  0.45248612  0.76635316    -0.80000
O255        O  0.06949352  0.01026237  0.81534973    -0.78200
O256        O  0.08160632  0.49844685  0.75540405    -1.14340
O257        O  0.07360550  0.05734598  0.77784246    -0.73530
C258        C  0.04878290  0.06105411  0.76137881     0.97180
C259        C  0.09891060  0.46264174  0.69546700     0.93580
Al260      Al  0.07723575  0.45815537  0.76098140     1.55560
O261        O  0.09941704  0.04939483  0.71981021    -0.78150
C262        C  0.06742646  0.48340419  0.82628921     0.97750
C263        C  0.02024385  0.47261210  0.72942550     0.92630
O264        O  0.03616084  0.48764344  0.70963386    -0.83470
O265        O  0.03893236  0.23740437  0.29948489    -0.82930
C266        C  0.13630968  0.22016662  0.22387552     0.96420
O267        O  0.12003670  0.20447874  0.24261289    -0.72050
O268        O  0.08502978  0.19747854  0.29239643    -0.75640
Al269      Al  0.07686212  0.20897479  0.24748902     1.48980
C270        C  0.10178360  0.21212030  0.31297798     0.91670
O271        O  0.10190848  0.29947839  0.29036157    -0.81860
O272        O  0.06895400  0.30810054  0.23221928    -0.75420
Al273      Al  0.07205330  0.26602886  0.29153559     1.90120
O274        O  0.12766910  0.28542787  0.24902658    -0.74490
O275        O  0.06209469  0.26050876  0.19491468    -0.74340
O276        O  0.12392879  0.24206752  0.20767394    -0.80000
O277        O  0.07018141  0.21119487  0.19996697    -0.78200
O278        O  0.08079362  0.24935412  0.25383864    -1.14340
O279        O  0.03326998  0.21194463  0.25350210    -0.73530
C280        C  0.02178604  0.22304765  0.27906634     0.97180
C281        C  0.12156489  0.30562052  0.26924302     0.93580
Al282      Al  0.09453774  0.27240433  0.22285909     1.55560
O283        O  0.10206166  0.24125395  0.31284795    -0.78150
C284        C  0.06384780  0.23442109  0.18218971     0.97750
C285        C  0.04763640  0.31297963  0.25196647     0.92630
O286        O  0.04168153  0.29310536  0.27331246    -0.83470
O287        O  0.28663191  0.29403017  0.24725233    -0.82930
C288        C  0.38850071  0.22375069  0.28819001     0.96420
O289        O  0.37715317  0.24507958  0.30522519    -0.72050
O290        O  0.37622964  0.29066334  0.26612221    -0.75640
Al291      Al  0.34590014  0.27485025  0.29253519     1.48980
C292        C  0.36844963  0.31004237  0.24514083     0.91670
O293        O  0.34597982  0.24948908  0.20053906    -0.81860
O294        O  0.28345860  0.21269194  0.25873770    -0.75420
Al295      Al  0.31660114  0.27092915  0.22494387     1.90120
O296        O  0.33426536  0.20357439  0.21899979    -0.74490
O297        O  0.32289314  0.21148987  0.31199691    -0.74340
O298        O  0.37111021  0.20848496  0.26921816    -0.80000
O299        O  0.31697722  0.26075140  0.32118410    -0.78200
O300        O  0.32982788  0.25257426  0.26084460    -1.14340
O301        O  0.31811087  0.30981510  0.28650642    -0.73530
C302        C  0.29286405  0.31236348  0.27043974     0.97180
C303        C  0.34850518  0.22046269  0.19912867     0.93580
Al304      Al  0.32767481  0.21185657  0.26458273     1.55560
O305        O  0.34463220  0.30554749  0.22741697    -0.78150
C306        C  0.31732548  0.23356000  0.33130445     0.97750
C307        C  0.26979065  0.22416562  0.23390170     0.92630
O308        O  0.28466762  0.24124405  0.21503966    -0.83470
O309        O  0.33707067  0.14705544  0.99178112    -0.82930
C310        C  0.40657090  0.24791723  0.03921836     0.96420
O311        O  0.38425890  0.23637823  0.05434186    -0.72050
O312        O  0.34181683  0.23593665  0.01030168    -0.75640
Al313      Al  0.35502570  0.20528168  0.03920356     1.48980
C314        C  0.32174592  0.22781670  0.98979037     0.91670
O315        O  0.38561896  0.20741220  0.95030699    -0.81860
O316        O  0.41768109  0.14343671  0.01279689    -0.75420
Al317      Al  0.36234213  0.17752369  0.97233124     1.90120
O318        O  0.43010730  0.19394622  0.97279376    -0.74490
O319        O  0.41667269  0.18295623  0.06511193    -0.74340
O320        O  0.42254754  0.23086762  0.02159771    -0.80000
O321        O  0.36721359  0.17574900  0.06970576    -0.78200
O322        O  0.37870013  0.18966350  0.00999812    -1.14340
O323        O  0.32022139  0.17759727  0.02999362    -0.73530
C324        C  0.31705548  0.15361154  0.01246716     0.97180
C325        C  0.41472556  0.20858802  0.95108940     0.93580
Al326      Al  0.41903629  0.18745725  0.01765496     1.55560
O327        O  0.32756148  0.20549253  0.97131926    -0.78150
C328        C  0.39362492  0.17736594  0.08253578     0.97750
C329        C  0.40756761  0.13037196  0.98706178     0.92630
O330        O  0.39239219  0.14584772  0.96599089    -0.83470
O331        O  0.37714937  0.39189659  0.03989852    -0.82930
C332        C  0.39714953  0.99958825  0.97178157     0.96420
O333        O  0.41693088  0.47860526  0.97717621    -0.72050
O334        O  0.42679621  0.45414997  0.03335525    -0.75640
Al335      Al  0.41353131  0.43703003  0.99269449     1.48980
C336        C  0.41358841  0.45953161  0.05941651     0.91670
O337        O  0.33277547  0.46583571  0.04443870    -0.81860
O338        O  0.32232104  0.41982160  0.96628626    -0.75420
Al339      Al  0.35660521  0.42979793  0.03799551     1.90120
O340        O  0.31979279  0.47454243  0.99435128    -0.74490
O341        O  0.36736425  0.44223186  0.93357047    -0.74340
O342        O  0.36875300  0.49364208  0.96883781    -0.80000
O343        O  0.40967655  0.41969743  0.94942662    -0.78200
O344        O  0.37255836  0.44065468  0.99980456    -1.14340
O345        O  0.41637750  0.39527629  0.00812853    -0.73530
C346        C  0.40037051  0.37999436  0.02758378     0.97180
C347        C  0.31624689  0.47912076  0.02357956     0.93580
Al348      Al  0.34728511  0.45603682  0.96870932     1.55560
O349        O  0.38664199  0.45023787  0.06361533    -0.78150
C350        C  0.39049585  0.42689416  0.92733583     0.97750
C351        C  0.31177851  0.40473767  0.98973839     0.92630
O352        O  0.32262157  0.40799870  0.01830957    -0.83470
C353        C  0.42316434  0.04408847  0.99837406    -0.10290
C354        C  0.40661935  0.03216049  0.97147363     0.05900
C355        C  0.39448198  0.05250064  0.94803524    -0.04060
C356        C  0.39734114  0.08425783  0.95267110    -0.08510
C357        C  0.41146413  0.09667422  0.98102153     0.05020
C358        C  0.42552361  0.07604679  0.00353400    -0.04010
Br359      Br  0.44647213  0.08918567  0.04275352    -0.03230
H360        H  0.43235511  0.02847082  0.01671096     0.08930
H361        H  0.38682168  0.09922818  0.93453604     0.06950
Br362      Br  0.37257501  0.03801947  0.90987219    -0.03660
C363        C  0.42588040  0.33017235  0.01406039    -0.10290
C364        C  0.40751463  0.34710969  0.03507484     0.05900
C365        C  0.39411375  0.33136913  0.06126610    -0.04060
C366        C  0.39614759  0.29923728  0.06341103    -0.08510
C367        C  0.41195194  0.28189817  0.04049178     0.05020
C368        C  0.42857625  0.29801973  0.01672443    -0.03530
Br369      Br  0.45432416  0.27829326  0.98589343    -0.03230
H370        H  0.43717356  0.34178055  0.99444062     0.08930
H371        H  0.38422772  0.28764369  0.08262801     0.06950
Br372      Br  0.37241899  0.35164607  0.09521414    -0.03660
C373        C  0.36136606  0.17543773  0.16411626    -0.10290
C374        C  0.36725150  0.20616901  0.17343916     0.05900
C375        C  0.39048980  0.22267470  0.15725855    -0.04060
C376        C  0.40408606  0.20978312  0.13001520    -0.08510
C377        C  0.39469949  0.18085317  0.11804552     0.05020
C378        C  0.37493379  0.16280641  0.13675598    -0.03530
Br379      Br  0.36331101  0.12192730  0.12342505    -0.03230
H380        H  0.34470261  0.16174923  0.17685529     0.08930
H381        H  0.41929558  0.22403131  0.11597174     0.06950
Br382      Br  0.40406551  0.26338083  0.16976397    -0.03660
C383        C  0.18702675  0.23203112  0.20000417    -0.10290
C384        C  0.17036791  0.21503041  0.22251810     0.05900
C385        C  0.18730450  0.19736267  0.24581100    -0.04060
C386        C  0.21958325  0.19964013  0.24805513    -0.08510
C387        C  0.23607637  0.21869755  0.22716090     0.05020
C388        C  0.21924181  0.23392382  0.20183406    -0.03530
Br389      Br  0.23748264  0.25933162  0.16936533    -0.03230
H390        H  0.17482144  0.24517581  0.18140124     0.08930
H391        H  0.23177119  0.18702466  0.26706562     0.06950
Br392      Br  0.16857809  0.17031715  0.27635145    -0.03660
C393        C  0.47002237  0.20045010  0.26487879    -0.10290
C394        C  0.48807747  0.21992675  0.28499236     0.05900
C395        C  0.47289697  0.23756520  0.30874807    -0.04060
C396        C  0.44078690  0.23652822  0.31058382    -0.08510
C397        C  0.42256377  0.21852278  0.28919479     0.05020
C398        C  0.43779729  0.19946352  0.26673530    -0.03530
Br399      Br  0.41677084  0.17227191  0.23666359    -0.03230
H400        H  0.48095515  0.18636902  0.24682148     0.08930
H401        H  0.42990953  0.25120116  0.32817040     0.06950
Br402      Br  0.49324294  0.26564540  0.33845790    -0.03660
C403        C  0.43725214  0.98509188  0.69776043    -0.10290
C404        C  0.42048443  0.46593565  0.71826184     0.05900
C405        C  0.43733492  0.44630419  0.73980386    -0.04060
C406        C  0.46963395  0.44818450  0.74212034    -0.08510
C407        C  0.48625520  0.46889925  0.72311468     0.05020
C408        C  0.46948196  0.48687164  0.69989812    -0.03530
Br409      Br  0.48786628  0.01627925  0.67139981    -0.03230
H410        H  0.42512847  0.00006162  0.68071803     0.08930
H411        H  0.48179744  0.43367047  0.75956450     0.06950
Br412      Br  0.41849413  0.41677435  0.76773314    -0.03660
C413        C  0.18473378  0.44692611  0.75832008    -0.10290
C414        C  0.17208724  0.46104283  0.78560282     0.05900
C415        C  0.19243381  0.47258871  0.81001741    -0.04060
C416        C  0.22427265  0.47165908  0.80575349    -0.08510
C417        C  0.23694933  0.45989300  0.77724293     0.05020
C418        C  0.21662389  0.44641874  0.75377003    -0.03530
Br419      Br  0.22985895  0.42868271  0.71384317    -0.03230
H420        H  0.16962730  0.43793654  0.73918982     0.08930
H421        H  0.23913267  0.48159764  0.82454187     0.06950
Br422      Br  0.17872670  0.99088683  0.84948932    -0.03660
C423        C  0.35708988  0.41522347  0.84739451    -0.10290
C424        C  0.36873867  0.44213419  0.83334105     0.05900
C425        C  0.39637965  0.45494725  0.84640971    -0.04060
C426        C  0.40905246  0.44362328  0.87563193    -0.08510
C427        C  0.39394246  0.42043088  0.89276662     0.05020
C428        C  0.36956132  0.40433343  0.87690860    -0.03530
Br429      Br  0.34821384  0.37190399  0.89860102    -0.03230
H430        H  0.33639202  0.40450842  0.83726918     0.08930
H431        H  0.42787159  0.45625387  0.88733347     0.06950
Br432      Br  0.41657694  0.48935949  0.82669485    -0.03660
C433        C  0.12420487  0.40622249  0.63058453    -0.10290
C434        C  0.14567139  0.42454333  0.61436944     0.05900
C435        C  0.15703733  0.45129602  0.63009150    -0.04060
C436        C  0.14260592  0.46229532  0.65771457    -0.08510
C437        C  0.11738285  0.44660404  0.67072535     0.05020
C438        C  0.10977299  0.41706098  0.65830579    -0.03530
Br439      Br  0.07695526  0.39225787  0.67458346    -0.03230
H440        H  0.11537198  0.38540149  0.61901941     0.08930
H441        H  0.15003901  0.98422305  0.66794603     0.06950
Br442      Br  0.18869276  0.97644514  0.61213382    -0.03660
C443        C  0.15815545  0.19587028  0.38269006    -0.10290
C444        C  0.14353046  0.17073403  0.39711532     0.05900
C445        C  0.12045739  0.15470655  0.37905964    -0.04060
C446        C  0.10860688  0.16719450  0.35008222    -0.08510
C447        C  0.11966834  0.19546558  0.33858486     0.05020
C448        C  0.14634127  0.20846267  0.35373421    -0.03530
Br449      Br  0.16685654  0.24422276  0.33711878    -0.03230
H450        H  0.17625877  0.20822804  0.39590065     0.08930
H451        H  0.08904449  0.15606749  0.33805439     0.06950
Br452      Br  0.10142238  0.11809890  0.39549811    -0.03660
C453        C  0.17711335  0.07830890  0.51346662    -0.10290
C454        C  0.16045765  0.09554262  0.53585611     0.05900
C455        C  0.14628984  0.07942968  0.56134553    -0.04060
C456        C  0.14660271  0.04711237  0.56193466    -0.08510
C457        C  0.16104555  0.02983749  0.53792198     0.05020
C458        C  0.17776269  0.04600280  0.51433183    -0.03530
Br459      Br  0.20066364  0.02632689  0.48107235    -0.03230
H460        H  0.18886680  0.08994972  0.49417908     0.08930
H461        H  0.13430431  0.03538402  0.58078777     0.06950
Br462      Br  0.12477052  0.09907805  0.59572840    -0.03660
C463        C  0.14570156  0.29600866  0.44790637    -0.10290
C464        C  0.16170382  0.27880973  0.47169837     0.05900
C465        C  0.17879607  0.29523317  0.49599899    -0.04060
C466        C  0.17678056  0.32750856  0.49786651    -0.08510
C467        C  0.15871516  0.34453963  0.47556281     0.05020
C468        C  0.14436541  0.32831134  0.44922273    -0.03530
Br469      Br  0.12152604  0.34766510  0.41420256    -0.03230
H470        H  0.13313360  0.28418063  0.42852019     0.08930
H471        H  0.18878833  0.33926037  0.51767134     0.06950
Br472      Br  0.20453334  0.27588767  0.52862601    -0.03660
C473        C  0.04866092  0.00428496  0.87697231    -0.10290
C474        C  0.06588582  0.48122375  0.86177570     0.05900
C475        C  0.09110672  0.96818006  0.87901454    -0.04060
C476        C  0.10230699  0.98244327  0.90741174    -0.08510
C477        C  0.08795980  0.00890490  0.91972825     0.05020
C478        C  0.05963703  0.01851561  0.90545677    -0.03530
Br479      Br  0.03744447  0.05402214  0.92003949    -0.03230
H480        H  0.02907061  0.51445145  0.86408983     0.08930
H481        H  0.12325894  0.97374228  0.91900085     0.06950
Br482      Br  0.11399227  0.93408235  0.86232001    -0.03660
C483        C  0.24427220  0.11233954  0.04066576    -0.10290
C484        C  0.23083503  0.10291423  0.01089880     0.05900
C485        C  0.24651078  0.10977639  0.98221540    -0.04060
C486        C  0.27492298  0.12507137  0.98378961    -0.08510
C487        C  0.28811533  0.13510789  0.01334692     0.05020
C488        C  0.27220267  0.12898311  0.04202695    -0.03530
Br489      Br  0.28778398  0.14201160  0.08370580    -0.03230
H490        H  0.23275821  0.10714716  0.06293058     0.08930
H491        H  0.28650649  0.12981121  0.96144886     0.06950
Br492      Br  0.23149907  0.09772344  0.93986145    -0.03660
C493        C  0.26480527  0.47608867  0.04051903    -0.10290
C494        C  0.28853282  0.49562262  0.03120814     0.05900
C495        C  0.28155213  0.02126033  0.01161486    -0.04060
C496        C  0.25272427  0.02333506  0.99616948    -0.08510
C497        C  0.22961513  0.00154513  0.00221338     0.05020
C498        C  0.23570972  0.47822944  0.02566308    -0.03530
Br499      Br  0.20637468  0.44727889  0.03770933    -0.03230
H500        H  0.27005925  0.45615507  0.05555125     0.08930
H501        H  0.24827293  0.04242736  0.97990936     0.06950
Br502      Br  0.31299146  0.05037803  0.00081068    -0.03660
C503        C  0.09256741  0.40688618  0.01132846    -0.10290
C504        C  0.11083236  0.38999278  0.03352077     0.05900
C505        C  0.12582825  0.40630666  0.05941264    -0.04060
C506        C  0.12469359  0.43856305  0.06046854    -0.08510
C507        C  0.10846323  0.45559330  0.03676690     0.05020
C508        C  0.09085942  0.43914659  0.01289387    -0.03530
Br509      Br  0.06467075  0.45835722  0.98056793    -0.03230
H510        H  0.08011555  0.39502180  0.99189453     0.08930
H511        H  0.13760807  0.45047986  0.07954884     0.06950
Br512      Br  0.14935345  0.38722491  0.09413079    -0.03660
C513        C  0.11246622  0.18707867  0.94692361    -0.10290
C514        C  0.10346776  0.20401053  0.97409939     0.05900
C515        C  0.09144839  0.18774207  0.00053681    -0.04060
C516        C  0.09179713  0.15555493  0.00079388    -0.08510
C517        C  0.10357807  0.13857919  0.97499951     0.05020
C518        C  0.11211629  0.15472421  0.94686286    -0.03530
Br519      Br  0.12367078  0.13462913  0.90755396    -0.03230
H520        H  0.12084334  0.19907298  0.92592197     0.08930
H521        H  0.08428947  0.14384283  0.02233916     0.06950
Br522      Br  0.07685671  0.20706231  0.03879268    -0.03660
C523        C  0.09711875  0.22461057  0.13677613    -0.10290
C524        C  0.06813339  0.23425370  0.14690824     0.05900
C525        C  0.05104063  0.25482907  0.12705339    -0.04060
C526        C  0.06440535  0.26814915  0.09992205    -0.08510
C527        C  0.09509888  0.26168742  0.09228161     0.05020
C528        C  0.11102811  0.23852358  0.11034665    -0.03530
Br529      Br  0.15222074  0.22516801  0.10157405    -0.03230
H530        H  0.11068631  0.20890873  0.15178187     0.08930
H531        H  0.05128120  0.28495724  0.08589986     0.06950
Br532      Br  0.01045278  0.26773225  0.13826522    -0.03660
C533        C  0.28460539  0.25468542  0.02351969    -0.10290
C534        C  0.28968598  0.23710893  0.99545128     0.05900
C535        C  0.26436630  0.22244870  0.97976630    -0.04060
C536        C  0.23517492  0.22533846  0.99249562    -0.08510
C537        C  0.23007906  0.24368575  0.02001615     0.05020
C538        C  0.25552824  0.25741631  0.03630400    -0.03530
Br539      Br  0.25281394  0.28053133  0.07590922    -0.03230
H540        H  0.30365300  0.26559335  0.03667068     0.08930
H541        H  0.21598933  0.21474244  0.97927923     0.06950
Br542      Br  0.26715452  0.19921211  0.94027086    -0.03660
C543        C  0.26038468  0.33466233  0.99280973    -0.10290
C544        C  0.23118538  0.34818074  0.98873358     0.05900
C545        C  0.22899701  0.37949024  0.97999678    -0.04060
C546        C  0.25588449  0.39736479  0.97808023    -0.08510
C547        C  0.28499898  0.38424721  0.98471730     0.05020
C548        C  0.28718441  0.35247719  0.99125517    -0.03530
Br549      Br  0.32625265  0.33270302  0.99885760    -0.03230
H550        H  0.26229924  0.31039185  0.99852237     0.08930
H551        H  0.25397571  0.42181165  0.97280515     0.06950
Br552      Br  0.18985613  0.39808384  0.96947912    -0.03660
C553        C  0.42942078  0.26288401  0.88108490    -0.10290
C554        C  0.45487938  0.24848213  0.86737513     0.05900
C555        C  0.47103138  0.22586926  0.88565100    -0.04060
C556        C  0.45886328  0.21464182  0.91435608    -0.08510
C557        C  0.43063211  0.22567415  0.92531616     0.05020
C558        C  0.41710903  0.25161192  0.90973270    -0.03530
Br559      Br  0.38124649  0.27200404  0.92566489    -0.03230
H560        H  0.41681135  0.28048087  0.86761647     0.08930
H561        H  0.47028411  0.19557454  0.92665952     0.06950
Br562      Br  0.50760511  0.20673605  0.87000591    -0.03660
C563        C  0.04393405  0.11778140  0.75725435    -0.10290
C564        C  0.03078331  0.08952986  0.76572727     0.05900
C565        C  0.50086319  0.08914957  0.77769788    -0.04060
C566        C  0.48345548  0.11648290  0.77789032    -0.08510
C567        C  0.49582706  0.14461827  0.76687806     0.05020
C568        C  0.02702330  0.14521165  0.75804376    -0.03530
Br569      Br  0.04859261  0.18269089  0.74873535    -0.03230
H570        H  0.06755628  0.11845454  0.74957687     0.08930
H571        H  0.45996990  0.11554598  0.78609101     0.06950
Br572      Br  0.48417063  0.05213278  0.79577149    -0.03660
C573        C  0.35757254  0.10853348  0.77311300    -0.10290
C574        C  0.37791065  0.08476047  0.76493498     0.05900
C575        C  0.40267995  0.09157428  0.74457982    -0.04060
C576        C  0.40686357  0.12149199  0.73352836    -0.08510
C577        C  0.38692565  0.14527757  0.74225654     0.05020
C578        C  0.36140419  0.13837320  0.76131410    -0.03530
Br579      Br  0.33062650  0.16858666  0.77118305    -0.03230
H580        H  0.33752787  0.10360205  0.78721016     0.08930
H581        H  0.42698859  0.12640470  0.71947135     0.06950
Br582      Br  0.43173869  0.06146062  0.73016403    -0.03660
C583        C  0.21972255  0.22933637  0.63370953    -0.10290
C584        C  0.20196946  0.25176832  0.64930644     0.05900
C585        C  0.17668962  0.26483674  0.63216554    -0.04060
C586        C  0.16651923  0.25162130  0.60287755    -0.08510
C587        C  0.18141520  0.22577246  0.58990173     0.05020
C588        C  0.20954476  0.21599292  0.60442321    -0.03530
Br589      Br  0.23253066  0.18143863  0.58881992    -0.03230
H590        H  0.23931243  0.21912258  0.64654103     0.08930
H591        H  0.14557700  0.26034386  0.59128052     0.06950
Br592      Br  0.15176929  0.29687292  0.65001840    -0.03660
C593        C  0.04833905  0.28595487  0.74998410    -0.10290
C594        C  0.03056160  0.26736134  0.72871573     0.05900
C595        C  0.04598225  0.25166977  0.70364773    -0.04060
C596        C  0.07816762  0.25257634  0.70248606    -0.08510
C597        C  0.09611905  0.26907441  0.72540319     0.05020
C598        C  0.08058193  0.28729205  0.74837372    -0.03530
Br599      Br  0.10123494  0.31368445  0.77943409    -0.03230
H600        H  0.03719901  0.29890986  0.76879079     0.08930
H601        H  0.08931766  0.23899661  0.68415689     0.06950
Br602      Br  0.02584080  0.22623367  0.67120268    -0.03660
C603        C  0.33392327  0.28297659  0.76722119    -0.10290
C604        C  0.34841360  0.26581277  0.79224644     0.05900
C605        C  0.32965762  0.25146281  0.81523707    -0.04060
C606        C  0.29753019  0.25301457  0.81169299    -0.08510
C607        C  0.28296258  0.26837904  0.78539569     0.05020
C608        C  0.30175339  0.28430581  0.76348012    -0.03530
Br609      Br  0.28581940  0.30738053  0.72701002    -0.03230
H610        H  0.34768966  0.29425793  0.74923248     0.08930
H611        H  0.28389221  0.24089350  0.82918362     0.06950
Br612      Br  0.34581640  0.22863746  0.85177739    -0.03660
C613        C  0.14474224  0.32742937  0.88104100    -0.10290
C614        C  0.12285387  0.30903156  0.89655719     0.05900
C615        C  0.11162052  0.28255056  0.88030093    -0.04060
C616        C  0.12659745  0.27166145  0.85299435    -0.08510
C617        C  0.15211456  0.28739027  0.84069310     0.05020
C618        C  0.15969999  0.31674065  0.85357545    -0.03530
Br619      Br  0.19324683  0.34120368  0.83838152    -0.03230
H620        H  0.15357483  0.34799159  0.89311981     0.08930
H621        H  0.11926932  0.24986284  0.84237439     0.06950
Br622      Br  0.07958203  0.25745407  0.89752629    -0.03660
C623        C  0.24526887  0.12866813  0.72178010    -0.10290
C624        C  0.24326102  0.14451068  0.75146932     0.05900
C625        C  0.25685698  0.13079523  0.77950427    -0.04060
C626        C  0.27124224  0.10198451  0.77748578    -0.08510
C627        C  0.27377245  0.08654554  0.74785759     0.05020
C628        C  0.26090677  0.10028632  0.71970576    -0.03530
Br629      Br  0.26286930  0.08043654  0.67832128    -0.03230
H630        H  0.23478329  0.13848824  0.70003162     0.08930
H631        H  0.28135867  0.09187745  0.79928888     0.06950
Br632      Br  0.25637978  0.14932219  0.82177425    -0.03660
C633        C  0.15202787  0.09068691  0.77243645    -0.10290
C634        C  0.13551139  0.08504369  0.74310280     0.05900
C635        C  0.12412490  0.11036194  0.72519776    -0.04060
C636        C  0.12716362  0.13995954  0.73793737    -0.08510
C637        C  0.14257313  0.14558831  0.76789829     0.05020
C638        C  0.15507448  0.12036666  0.78520194    -0.03530
Br639      Br  0.17477664  0.12411462  0.82722474    -0.03230
H640        H  0.16084935  0.07166862  0.78695292     0.08930
H641        H  0.11800358  0.15885698  0.72348521     0.06950
Br642      Br  0.10343185  0.10666415  0.68362371    -0.03660
C643        C  0.29670113  0.00562754  0.62483743    -0.10290
C644        C  0.31377826  0.48238911  0.64103730     0.05900
C645        C  0.33947331  0.46987802  0.62560156    -0.04060
C646        C  0.35064050  0.98423274  0.59799346    -0.08510
C647        C  0.33625926  0.01061463  0.58473955     0.05020
C648        C  0.30778559  0.01999739  0.59710607    -0.03530
Br649      Br  0.28523451  0.05498345  0.58062032    -0.03230
H650        H  0.27671910  0.01540260  0.63618134     0.08930
H651        H  0.37175526  0.97568677  0.58785916     0.06950
Br652      Br  0.36328054  0.43650010  0.64365820    -0.03660
C653        C  0.48838658  0.11998716  0.52295177    -0.10290
C654        C  0.48171166  0.09904264  0.49770845     0.05900
C655        C  0.00316932  0.09646188  0.47248744    -0.04060
C656        C  0.02993104  0.11496016  0.47295703    -0.08510
C657        C  0.03648993  0.13529707  0.49868883     0.05020
C658        C  0.01544637  0.13744450  0.52388456    -0.03530
Br659      Br  0.02233637  0.16361855  0.56072280    -0.03230
H660        H  0.47284972  0.12230923  0.54285665     0.08930
H661        H  0.04609863  0.11284691  0.45358767     0.06950
Br662      Br  0.99806908  0.06819075  0.43688838    -0.03660
C663        C  0.00075495  0.01526870  0.52573860    -0.10290
C664        C  0.47687091  0.99496590  0.51618828     0.05900
C665        C  0.48299085  0.47153091  0.49334392    -0.04060
C666        C  0.01243430  0.46850530  0.48145328    -0.08510
C667        C  0.03639959  0.48828415  0.49168349     0.05020
C668        C  0.02997470  0.01272916  0.51303858    -0.03530
Br669      Br  0.05968451  0.04401315  0.52516482    -0.03230
H670        H  0.99631296  0.03458038  0.54163299     0.08930
H671        H  0.01687445  0.44934379  0.46535550     0.06950
Br672      Br  0.45264420  0.44284169  0.47642428    -0.03660
C673        C  0.35877290  0.28448253  0.63173006    -0.10290
C674        C  0.37122076  0.31146491  0.61862498     0.05900
C675        C  0.39296415  0.32835895  0.63757727    -0.04060
C676        C  0.40572906  0.31561225  0.66602200    -0.08510
C677        C  0.39704993  0.28603362  0.67615151     0.05020
C678        C  0.37156853  0.27156340  0.66016445    -0.03530
Br679      Br  0.35414076  0.23341564  0.67482708    -0.03230
H680        H  0.34182440  0.27125938  0.61777329     0.08930
H681        H  0.42433271  0.32777161  0.67861945     0.06950
Br682      Br  0.40949572  0.36670047  0.62276290    -0.03660
C683        C  0.33746872  0.40848083  0.49757287    -0.10290
C684        C  0.35561066  0.39041025  0.47729180     0.05900
C685        C  0.37044294  0.40547532  0.45140039    -0.04060
C686        C  0.36944365  0.43765846  0.44869708    -0.08510
C687        C  0.35353632  0.45595080  0.47068284     0.05020
C688        C  0.33585654  0.44071677  0.49423492    -0.03530
Br689      Br  0.30963477  0.46181934  0.52358230    -0.03230
H690        H  0.32501739  0.39760016  0.51684383     0.08930
H691        H  0.38242594  0.44856670  0.42982641     0.06950
Br692      Br  0.39390301  0.38484183  0.41900432    -0.03660
C693        C  0.37584064  0.18843433  0.56062947    -0.10290
C694        C  0.35647829  0.20608524  0.54015410     0.05900
C695        C  0.33732015  0.19021413  0.51716064    -0.04060
C696        C  0.33960245  0.15802921  0.51380514    -0.08510
C697        C  0.36040665  0.14066343  0.53300489     0.05020
C698        C  0.37814725  0.15639251  0.55733905    -0.03530
Br699      Br  0.40815929  0.13705089  0.58584658    -0.03230
H700        H  0.39065203  0.19979032  0.57855415     0.08930
H701        H  0.32536416  0.14658797  0.49544547     0.06950
Br702      Br  0.30811444  0.21034481  0.48847079    -0.03660
C703        C  0.35470799  0.23422354  0.41150029    -0.10290
C704        C  0.33820207  0.25875116  0.42512091     0.05900
C705        C  0.30853663  0.26554220  0.41206342    -0.04060
C706        C  0.29825184  0.25101944  0.38340020    -0.08510
C707        C  0.31726894  0.23036612  0.36686338     0.05020
C708        C  0.34431492  0.21979315  0.38287185    -0.03530
Br709      Br  0.37074360  0.18966003  0.36399936    -0.03230
H710        H  0.37682248  0.22745167  0.42205352     0.08930
H711        H  0.27724524  0.25927866  0.37152915     0.06950
Br712      Br  0.28271054  0.29740337  0.42887441    -0.03660
C713        C  0.48974932  0.24556767  0.53366048    -0.10290
C714        C  0.47805965  0.24850276  0.50159166     0.05900
C715        C  0.99856541  0.24908447  0.47602330    -0.04060
C716        C  0.02994166  0.24588777  0.48268952    -0.08510
C717        C  0.04150299  0.24200685  0.51465549     0.05020
C718        C  0.02125487  0.24309741  0.54031051    -0.03530
Br719      Br  0.03580420  0.24367060  0.58455510    -0.03230
H720        H  0.47454840  0.24687218  0.55392881     0.08930
H721        H  0.04515665  0.24497393  0.46240392     0.06950
Br722      Br  0.48505043  0.25310179  0.43159067    -0.03660
C723        C  0.00663300  0.33544371  0.51123775    -0.10290
C724        C  0.47980243  0.35025428  0.52117545     0.05900
C725        C  0.48150686  0.38093456  0.53194638    -0.04060
C726        C  0.00949126  0.39703647  0.53057615    -0.08510
C727        C  0.03614434  0.38288229  0.51858702     0.05020
C728        C  0.03467741  0.35131113  0.50995251    -0.03530
Br729      Br  0.07004344  0.32808133  0.49727708    -0.03230
H730        H  0.00561788  0.31148672  0.50374670     0.08930
H731        H  0.01011669  0.42100616  0.53811061     0.06950
Br732      Br  0.44638518  0.40109273  0.54952024    -0.03660
C733        C  0.16793701  0.51370339  0.37673914    -0.10290
C734        C  0.19713417  0.50505643  0.36636680     0.05900
C735        C  0.21567070  0.48649079  0.38690675    -0.04060
C736        C  0.20306674  0.47228173  0.41391419    -0.08510
C737        C  0.17203124  0.47692316  0.42135252     0.05020
C738        C  0.15515702  0.49980638  0.40383625    -0.03530
Br739      Br  0.11419238  0.51259918  0.41428484    -0.03230
H740        H  0.15343315  0.52835195  0.36148389     0.08930
H741        H  0.21715089  0.45631234  0.42801723     0.06950
Br742      Br  0.25757743  0.97801344  0.37705019    -0.03660
C743        C  0.14661453  0.07724314  0.13106069    -0.10290
C744        C  0.12512232  0.05922582  0.11310669     0.05900
C745        C  0.11611275  0.03074315  0.12608537    -0.04060
C746        C  0.13302676  0.01807146  0.15198987    -0.08510
C747        C  0.15619012  0.03491626  0.16880591     0.05020
C748        C  0.16178934  0.06563257  0.15895259    -0.03530
Br749      Br  0.19262465  0.09154759  0.17930648    -0.03230
H750        H  0.15406263  0.09917780  0.12136859     0.08930
H751        H  0.12810082  0.49446716  0.15862897     0.06950
Br752      Br  0.08303890  0.50642217  0.10758299    -0.03660
C753        C  0.22209543  0.36360213  0.26717231    -0.10290
C754        C  0.23490381  0.39213667  0.27624513     0.05900
C755        C  0.26464632  0.39290236  0.29031759    -0.04060
C756        C  0.28316727  0.36633882  0.28995665    -0.08510
C757        C  0.27157309  0.33838654  0.27700018     0.05020
C758        C  0.23991881  0.33664729  0.26839079    -0.03530
Br759      Br  0.21965098  0.29776781  0.26088834    -0.03230
H760        H  0.19832023  0.36237906  0.25877985     0.08930
H761        H  0.30677322  0.36777488  0.29908630     0.06950
Br762      Br  0.27901940  0.42930540  0.31234239    -0.03660
C763        C  0.14252500  0.37725432  0.22227510    -0.10290
C764        C  0.12949322  0.40027967  0.24124178     0.05900
C765        C  0.11207360  0.39156586  0.26809358    -0.04060
C766        C  0.11255115  0.36103774  0.27843473    -0.08510
C767        C  0.12810770  0.33815987  0.26122012     0.05020
C768        C  0.14234732  0.34657233  0.23192273    -0.03530
Br769      Br  0.16327959  0.31888899  0.20338586    -0.03230
H770        H  0.15536444  0.38342620  0.20111278     0.08930
H771        H  0.09968602  0.35508909  0.29959151     0.06950
Br772      Br  0.08734184  0.41988400  0.29216021    -0.03660
C773        C  0.46851805  0.48431762  0.12754832    -0.10290
C774        C  0.44953036  0.50469207  0.14463072     0.05900
C775        C  0.42185612  0.51483513  0.12935102    -0.04060
C776        C  0.41166994  0.50116566  0.10026937    -0.08510
C777        C  0.42883435  0.47789289  0.08548869     0.05020
C778        C  0.45840004  0.47088579  0.09820269    -0.03530
Br779      Br  0.48368572  0.43976643  0.07933175    -0.03230
H780        H  0.48980332  0.97612087  0.13887302     0.08930
H781        H  0.38922121  0.50741639  0.09013295     0.06950
Br782      Br  0.39434209  0.54335481  0.14916454    -0.03660
C783        C  0.33349352  0.03423702  0.24283005    -0.10290
C784        C  0.34757559  0.01128977  0.22401832     0.05900
C785        C  0.32843730  0.48906286  0.20832787    -0.04060
C786        C  0.29672065  0.48932307  0.21311944    -0.08510
C787        C  0.28280499  0.01146572  0.23295354     0.05020
C788        C  0.30158182  0.03461160  0.24727484    -0.03530
Br789      Br  0.28537973  0.06779561  0.27245575    -0.03230
H790        H  0.34744858  0.05180036  0.25488448     0.08930
H791        H  0.28289787  0.47132266  0.20163253     0.06950
Br792      Br  0.34320155  0.45665783  0.18084907    -0.03660
C793        C  0.04947339  0.02196234  0.25011076    -0.10290
C794        C  0.03304077  0.03057003  0.27714112     0.05900
C795        C  0.04918247  0.03727699  0.30649407    -0.04060
C796        C  0.08145378  0.03435802  0.30839073    -0.08510
C797        C  0.09759637  0.02421885  0.28144564     0.05020
C798        C  0.08110942  0.51769620  0.25242273    -0.03530
Br799      Br  0.09896627  0.49669742  0.21722323    -0.03230
H800        H  0.03726177  0.51527097  0.22791178     0.08930
H801        H  0.09376965  0.03904596  0.33105084     0.06950
Br802      Br  0.02812293  0.05009294  0.34436357    -0.03660
C803        C  0.41306453  0.06823744  0.35009555    -0.10290
C804        C  0.40372284  0.03967616  0.33712153     0.05900
C805        C  0.37778482  0.02484502  0.35003307    -0.04060
C806        C  0.36452730  0.03646283  0.37810176    -0.08510
C807        C  0.37717141  0.06238198  0.39401245     0.05020
C808        C  0.40004262  0.07959719  0.37833337    -0.03530
Br809      Br  0.41777928  0.11607354  0.39771442    -0.03230
H810        H  0.43231059  0.08046798  0.33993836     0.08930
H811        H  0.34698159  0.02289115  0.38968271     0.06950
Br812      Br  0.36044929  0.98786280  0.33132409    -0.03660
C813        C  0.52510783  0.35811149  0.22185575    -0.10290
C814        C  0.03157092  0.34330461  0.25154292     0.05900
C815        C  0.02507202  0.35919762  0.28050564    -0.04060
C816        C  0.01187311  0.38864829  0.27927740    -0.08510
C817        C  0.50436097  0.40291535  0.24968985     0.05020
C818        C  0.51118652  0.38738680  0.22072301    -0.03530
Br819      Br  0.50266477  0.40549780  0.17908061    -0.03230
H820        H  0.53056947  0.34669408  0.19939264     0.08930
H821        H  0.00643237  0.40007236  0.30175349     0.06950
Br822      Br  0.03482730  0.34307107  0.32281206    -0.03660
C823        C  0.42066507  0.37427818  0.27282282    -0.10290
C824        C  0.39929952  0.39853462  0.27393653     0.05900
C825        C  0.36883001  0.39357160  0.26282279    -0.04060
C826        C  0.36019537  0.36517292  0.25002684    -0.08510
C827        C  0.38141781  0.34094081  0.24866655     0.05020
C828        C  0.41198072  0.34559356  0.26004285    -0.03530
Br829      Br  0.44286979  0.31409615  0.25677863    -0.03230
H830        H  0.44461872  0.37825668  0.27966535     0.08930
H831        H  0.33633279  0.36167987  0.24242552     0.06950
Br832      Br  0.33865506  0.42568028  0.26292915    -0.03660
O833        O  0.48751948  0.00885606  0.29676725    -0.82930
C834        C  0.38188560  0.50927337  0.22466037     0.96420
O835        O  0.39740338  0.52761384  0.24239754    -0.72050
O836        O  0.43494416  0.54109194  0.29046124    -0.75640
Al837      Al  0.44086995  0.52950003  0.24570449     1.48980
C838        C  0.42254213  0.52484369  0.31208536     0.91670
O839        O  0.43417096  0.93779806  0.29197646    -0.81860
O840        O  0.46094404  0.93217879  0.23249169    -0.75420
Al841      Al  0.45868245  0.97521063  0.29074360     1.90120
O842        O  0.40225662  0.94681736  0.25150885    -0.74490
O843        O  0.45729967  0.97842275  0.19309798    -0.74340
O844        O  0.39561781  0.98853674  0.20892501    -0.80000
O845        O  0.44428401  0.52671678  0.19819567    -0.78200
O846        O  0.44365239  0.98922889  0.25317120    -1.14340
O847        O  0.48429053  0.53331083  0.24988864    -0.73530
C848        C  0.49964831  0.52515320  0.27504817     0.97180
C849        C  0.41126467  0.92993916  0.27430694     0.93580
Al850      Al  0.43016234  0.96337291  0.22354264     1.55560
O851        O  0.42723860  0.99604781  0.31320930    -0.78150
C852        C  0.45226324  0.50424088  0.18045820     0.97750
C853        C  0.48518695  0.93120035  0.25026160     0.92630
O854        O  0.49079552  0.95220034  0.27106783    -0.83470
O855        O  0.22628656  0.93908345  0.24800787    -0.82930
C856        C  0.13080884  0.51744184  0.28374231     0.96420
O857        O  0.14049836  0.99565841  0.30172650    -0.72050
O858        O  0.13776030  0.95013638  0.26162812    -0.75640
Al859      Al  0.16917770  0.96339646  0.29001086     1.48980
C860        C  0.14390187  0.93092235  0.24018080     0.91670
O861        O  0.17268674  0.99025941  0.19764112    -0.81860
O862        O  0.23601441  0.52102729  0.26185911    -0.75420
Al863      Al  0.19902867  0.96579761  0.22414931     1.90120
O864        O  0.18741343  0.53476826  0.21812011    -0.74490
O865        O  0.19565127  0.52463353  0.31179851    -0.74340
O866        O  0.14885619  0.53126997  0.26524234    -0.80000
O867        O  0.19968315  0.97505218  0.32043080    -0.78200
O868        O  0.18691388  0.98466696  0.25944691    -1.14340
O869        O  0.19307097  0.92604093  0.28480430    -0.73530
C870        C  0.21746749  0.92078163  0.26973987     0.97180
C871        C  0.17319046  0.51939085  0.19615266     0.93580
Al872      Al  0.19202391  0.52510571  0.26406976     1.55560
O873        O  0.16760844  0.93465190  0.22350988    -0.78150
C874        C  0.20002710  0.50211627  0.33110530     0.97750
C875        C  0.24907873  0.50862417  0.23797959     0.92630
O876        O  0.23357332  0.99231656  0.21790057    -0.83470
O877        O  0.43085322  0.83976699  0.49671976    -0.82930
C878        C  0.36078137  0.74035983  0.54017007     0.96420
O879        O  0.38231035  0.75242653  0.55744003    -0.72050
O880        O  0.42717289  0.75116869  0.51815558    -0.75640
Al881      Al  0.41211828  0.78291421  0.54401126     1.48980
C882        C  0.44603727  0.75855633  0.49717692     0.91670
O883        O  0.38273592  0.77859358  0.45254801    -0.81860
O884        O  0.34993040  0.84471829  0.51037291    -0.75420
Al885      Al  0.40582964  0.80892633  0.47577853     1.90120
O886        O  0.33808431  0.79274164  0.47127323    -0.74490
O887        O  0.34996806  0.80651146  0.56409261    -0.74340
O888        O  0.34484492  0.75720187  0.52137368    -0.80000
O889        O  0.39929803  0.81364605  0.57207407    -0.78200
O890        O  0.38894135  0.79769277  0.51226331    -1.14340
O891        O  0.44702281  0.80966621  0.53665870    -0.73530
C892        C  0.45053798  0.83310276  0.51882530     0.97180
C893        C  0.35360164  0.77751921  0.45110120     0.93580
Al894      Al  0.34847195  0.80054855  0.51662187     1.55560
O895        O  0.43998043  0.78065531  0.47815727    -0.78150
C896        C  0.37276833  0.81278523  0.58300006     0.97750
C897        C  0.36052507  0.85694230  0.48493958     0.92630
O898        O  0.37631865  0.84079274  0.46603201    -0.83470
O899        O  0.37850073  0.59033267  0.54684792    -0.82930
C900        C  0.36006704  0.98987046  0.47148937     0.96420
O901        O  0.34450648  0.50778204  0.48859943    -0.72050
O902        O  0.33842296  0.54387865  0.53818703    -0.75640
Al903      Al  0.35040939  0.55098688  0.49368295     1.48980
C904        C  0.35285761  0.52839989  0.55993825     0.91670
O905        O  0.44031506  0.52735724  0.54085358    -0.81860
O906        O  0.44968362  0.55547952  0.48292881    -0.75420
Al907      Al  0.40691183  0.55710480  0.53987197     1.90120
O908        O  0.42482757  0.49808554  0.50138390    -0.74490
O909        O  0.40397863  0.55990026  0.44273919    -0.74340
O910        O  0.38304412  0.00042317  0.45669585    -0.80000
O911        O  0.35395789  0.55684759  0.44637337    -0.78200
O912        O  0.39040031  0.54632579  0.50186951    -1.14340
O913        O  0.35388904  0.59496776  0.49993449    -0.73530
C914        C  0.36431019  0.60699700  0.52618157     0.97180
C915        C  0.44511189  0.50492945  0.52205279     0.93580
Al916      Al  0.41370404  0.52964355  0.47286187     1.55560
O917        O  0.38200894  0.52813330  0.56106939    -0.78150
C918        C  0.37772150  0.56164643  0.42970163     0.97750
C919        C  0.45327238  0.57966383  0.50003646     0.92630
O920        O  0.43345371  0.58653623  0.52082426    -0.83470
O921        O  0.23411457  0.74956259  0.80139246    -0.82930
C922        C  0.13005801  0.76306790  0.72735110     0.96420
O923        O  0.14760585  0.77926130  0.74528090    -0.72050
O924        O  0.18497968  0.78697682  0.79484550    -0.75640
Al925      Al  0.19107075  0.77566410  0.74995677     1.48980
C926        C  0.17075270  0.77165576  0.81597518     0.91670
O927        O  0.17422520  0.68387940  0.79394061    -0.81860
O928        O  0.20065079  0.67660004  0.73545953    -0.75420
Al929      Al  0.20203922  0.71922810  0.79398204     1.90120
O930        O  0.14273722  0.69815750  0.75559526    -0.74490
O931        O  0.20079085  0.72313628  0.69636997    -0.74340
O932        O  0.14107291  0.74024281  0.71223750    -0.80000
O933        O  0.19574741  0.77296692  0.70288179    -0.78200
O934        O  0.18899234  0.73532364  0.75659904    -1.14340
O935        O  0.23490847  0.77451241  0.75525246    -0.73530
C936        C  0.24892374  0.76448812  0.78042974     0.97180
C937        C  0.15152521  0.67788018  0.77515761     0.93580
Al938      Al  0.17253463  0.71127812  0.72687718     1.55560
O939        O  0.17243081  0.74248979  0.81636720    -0.78150
C940        C  0.20110548  0.74988108  0.68489332     0.97750
C941        C  0.22487018  0.67354276  0.75326780     0.92630
O942        O  0.23208331  0.69412014  0.77395392    -0.83470
O943        O  0.48048657  0.69213127  0.74176760    -0.82930
C944        C  0.38221238  0.76015943  0.79065749     0.96420
O945        O  0.39453437  0.73757318  0.80554570    -0.72050
O946        O  0.39273270  0.69486099  0.76293751    -0.75640
Al947      Al  0.42482986  0.70876862  0.79002209     1.48980
C948        C  0.39890010  0.67682484  0.74047038     0.91670
O949        O  0.41822367  0.74081315  0.70041350    -0.81860
O950        O  0.48508824  0.77265601  0.76063073    -0.75420
Al951      Al  0.44911896  0.71740291  0.72229591     1.90120
O952        O  0.43200805  0.78516929  0.72220110    -0.74490
O953        O  0.44871371  0.77058101  0.81404252    -0.74340
O954        O  0.39821014  0.77659820  0.77232295    -0.80000
O955        O  0.45587544  0.72099301  0.81933932    -0.78200
O956        O  0.43865867  0.73313376  0.75989659    -1.14340
O957        O  0.45183408  0.67434934  0.78058868    -0.73530
C958        C  0.47544889  0.67212591  0.76333188     0.97180
C959        C  0.41629167  0.76990170  0.70119266     0.93580
Al960      Al  0.44128184  0.77348584  0.76688905     1.55560
O961        O  0.42097044  0.68296953  0.72225183    -0.78150
C962        C  0.45535706  0.74736622  0.83168685     0.97750
C963        C  0.49704979  0.76263260  0.73489160     0.92630
O964        O  0.48061269  0.74757598  0.71457895    -0.83470
O965        O  0.13250957  0.84134355  0.04742994    -0.82930
C966        C  0.11129218  0.73735197  0.97617589     0.96420
O967        O  0.09668271  0.75530328  0.99416709    -0.72050
O968        O  0.09315369  0.79221586  0.04373063    -0.75640
Al969      Al  0.10204354  0.79868518  0.99815016     1.48980
C970        C  0.10971574  0.77897780  0.06558680     0.91670
O971        O  0.19465060  0.77992215  0.04024106    -0.81860
O972        O  0.20045255  0.80352729  0.98093890    -0.75420
Al973      Al  0.16100969  0.80884192  0.03986093     1.90120
O974        O  0.17805719  0.74718457  0.00414057    -0.74490
O975        O  0.15269848  0.80581208  0.94325337    -0.74340
O976        O  0.13407322  0.74731545  0.96091420    -0.80000
O977        O  0.10296544  0.80382570  0.95063621    -0.78200
O978        O  0.14243355  0.79519063  0.00390521    -1.14340
O979        O  0.10417650  0.84287500  0.00282711    -0.73530
C980        C  0.11572485  0.85634820  0.02768476     0.97180
C981        C  0.19868793  0.75563174  0.02401457     0.93580
Al982      Al  0.16456946  0.77727739  0.97440952     1.55560
O983        O  0.13873292  0.78087502  0.06509592    -0.78150
C984        C  0.12563775  0.80786289  0.93219423     0.97750
C985        C  0.20375030  0.82931462  0.99515789     0.92630
O986        O  0.18508074  0.83779249  0.01644660    -0.83470
O987        O  0.18140895  0.58985901  0.98831490    -0.82930
C988        C  0.11365913  0.98961400  0.03524461     0.96420
O989        O  0.13549079  0.00209857  0.05183859    -0.72050
O990        O  0.17730428  0.50201029  0.01088903    -0.75640
Al991      Al  0.16423269  0.53352861  0.03747976     1.48980
C992        C  0.19774953  0.50923788  0.99198774     0.91670
O993        O  0.13319146  0.52742255  0.94682218    -0.81860
O994        O  0.10048663  0.59224111  0.00569008    -0.75420
Al995      Al  0.15644870  0.55838113  0.96906080     1.90120
O996        O  0.08889312  0.54147900  0.96658390    -0.74490
O997        O  0.10247408  0.55503065  0.05907169    -0.74340
O998        O  0.09747401  0.50591879  0.01626645    -0.80000
O999        O  0.15162612  0.56416906  0.06581197    -0.78200
O1000       O  0.14037436  0.54752835  0.00627712    -1.14340
O1001       O  0.19879642  0.56159488  0.02901217    -0.73530
C1002       C  0.20185906  0.58438014  0.00993155     0.97180
C1003       C  0.10404359  0.52668410  0.94582200     0.93580
Al1004     Al  0.10006247  0.54904326  0.01161016     1.55560
O1005       O  0.19202567  0.53031976  0.97141701    -0.78150
C1006       C  0.12547428  0.56188358  0.07750819     0.97750
C1007       C  0.10986874  0.60519520  0.98023386     0.92630
O1008       O  0.12595287  0.59021872  0.96031375    -0.83470
O1009       O  0.14078764  0.64539634  0.54960264    -0.82930
C1010       C  0.15641730  0.74468817  0.47308775     0.96420
O1011       O  0.17225984  0.72819904  0.49231442    -0.72050
O1012       O  0.18006385  0.69303308  0.54287242    -0.75640
Al1013     Al  0.16828281  0.68507435  0.49792867     1.48980
C1014       C  0.16530761  0.70831150  0.56357346     0.91670
O1015       O  0.07839462  0.70810611  0.53847246    -0.81860
O1016       O  0.06888486  0.67621866  0.48080969    -0.75420
Al1017     Al  0.11182198  0.67841696  0.54064862     1.90120
O1018       O  0.09125624  0.73540398  0.49689040    -0.74490
O1019       O  0.11608955  0.67079856  0.44426620    -0.74340
O1020       O  0.13441887  0.73243649  0.45654368    -0.80000
O1021       O  0.16557050  0.67816256  0.45078794    -0.78200
O1022       O  0.12799286  0.68836364  0.50332626    -1.14340
O1023       O  0.16630552  0.64161020  0.50454924    -0.73530
C1024       C  0.15593636  0.62927120  0.52991813     0.97180
C1025       C  0.07281951  0.72983042  0.51872571     0.93580
Al1026     Al  0.10440268  0.70255118  0.47171986     1.55560
O1027       O  0.13622259  0.70834679  0.56250262    -0.78150
C1028       C  0.14241550  0.67104263  0.43274336     0.97750
C1029       C  0.06538366  0.65359659  0.49993260     0.92630
O1030       O  0.08535172  0.64792775  0.52194726    -0.83470
O1031       O  0.08282671  0.89524626  0.49192530    -0.82930
C1032       C  0.15451909  0.49605519  0.53573885     0.96420
O1033       O  0.13242600  0.98478779  0.55130209    -0.72050
O1034       O  0.08771781  0.98462704  0.50946097    -0.75640
Al1035     Al  0.10264467  0.95396696  0.53737594     1.48980
C1036       C  0.06798266  0.97692430  0.48839065     0.91670
O1037       O  0.12889121  0.95474547  0.44671119    -0.81860
O1038       O  0.16453638  0.89137699  0.50702769    -0.75420
Al1039     Al  0.10696350  0.92532272  0.47040052     1.90120
O1040       O  0.17451206  0.94309769  0.46742147    -0.74490
O1041       O  0.16528152  0.92983501  0.56015721    -0.74340
O1042       O  0.16960230  0.97891689  0.51736601    -0.80000
O1043       O  0.11588567  0.92457771  0.56726375    -0.78200
O1044       O  0.12507388  0.93797987  0.50702212    -1.14340
O1045       O  0.06762152  0.92680523  0.52994580    -0.73530
C1046       C  0.06403683  0.90212260  0.51369195     0.97180
C1047       C  0.15780812  0.95753545  0.44662950     0.93580
Al1048     Al  0.16565163  0.93553038  0.51267202     1.55560
O1049       O  0.07289343  0.95370389  0.47073468    -0.78150
C1050       C  0.14291422  0.92455818  0.57862560     0.97750
C1051       C  0.15324219  0.87813762  0.48185878     0.92630
O1052       O  0.13622523  0.89327009  0.46229404    -0.83470
O1053       O  0.28598650  0.98048427  0.79318184    -0.82930
C1054       C  0.38629719  0.97034947  0.71953127     0.96420
O1055       O  0.37027003  0.95352447  0.73735884    -0.72050
O1056       O  0.33506256  0.94331185  0.78629481    -0.75640
Al1057     Al  0.32691546  0.95571544  0.74154824     1.48980
C1058       C  0.35022558  0.95836161  0.80786050     0.91670
O1059       O  0.34569716  0.54633888  0.78773631    -0.81860
O1060       O  0.31469733  0.55494910  0.72924026    -0.75420
Al1061     Al  0.31766084  0.51115996  0.78699219     1.90120
O1062       O  0.37385918  0.53408962  0.74732566    -0.74490
O1063       O  0.31168415  0.50857978  0.68978053    -0.74340
O1064       O  0.37345823  0.49244428  0.70406327    -0.80000
O1065       O  0.32031868  0.95918564  0.69418689    -0.78200
O1066       O  0.32852999  0.49602333  0.74917717    -1.14340
O1067       O  0.28333145  0.95583392  0.74659375    -0.73530
C1068       C  0.27049072  0.96519674  0.77200201     0.97180
C1069       C  0.36726879  0.55280536  0.76890222     0.93580
Al1070     Al  0.34232484  0.52076841  0.71955010     1.55560
O1071       O  0.34852467  0.98747643  0.80875900    -0.78150
C1072       C  0.31329206  0.98251977  0.67683746     0.97750
C1073       C  0.29181756  0.55745450  0.74754425     0.92630
O1074       O  0.28638947  0.53678653  0.76825039    -0.83470
O1075       O  0.04065122  0.54185717  0.73957961    -0.82930
C1076       C  0.13844095  0.96768037  0.78491872     0.96420
O1077       O  0.12819543  0.49033496  0.80063937    -0.72050
O1078       O  0.13020525  0.53338735  0.75825671    -0.75640
Al1079     Al  0.09905937  0.52111485  0.78592285     1.48980
C1080       C  0.12298381  0.55365776  0.73794575     0.91670
O1081       O  0.09821405  0.99186426  0.69558434    -0.81860
O1082       O  0.03324473  0.96128420  0.75468333    -0.75420
Al1083     Al  0.06964133  0.51599217  0.71854615     1.90120
O1084       O  0.08374302  0.94752236  0.71601491    -0.74490
O1085       O  0.07180630  0.96028296  0.80801422    -0.74340
O1086       O  0.12048181  0.95248608  0.76635320    -0.80000
O1087       O  0.06949353  0.51026243  0.81534965    -0.78200
O1088       O  0.08160630  0.99844681  0.75540411    -1.14340
O1089       O  0.07360551  0.55734602  0.77784237    -0.73530
C1090       C  0.04878292  0.56105415  0.76137871     0.97180
C1091       C  0.09891053  0.96264171  0.69546704     0.93580
Al1092     Al  0.07723572  0.95815533  0.76098146     1.55560
O1093       O  0.09941707  0.54939487  0.71981014    -0.78150
C1094       C  0.06742645  0.98340413  0.82628927     0.97750
C1095       C  0.02024382  0.97261206  0.72942558     0.92630
O1096       O  0.03616080  0.98764341  0.70963395    -0.83470
O1097       O  0.03893241  0.73740433  0.29948486    -0.82930
C1098       C  0.13630972  0.72016659  0.22387547     0.96420
O1099       O  0.12003674  0.70447870  0.24261285    -0.72050
O1100       O  0.08502982  0.69747849  0.29239638    -0.75640
Al1101     Al  0.07686216  0.70897475  0.24748898     1.48980
C1102       C  0.10178365  0.71212024  0.31297795     0.91670
O1103       O  0.10190854  0.79947834  0.29036156    -0.81860
O1104       O  0.06895406  0.80810051  0.23221927    -0.75420
Al1105     Al  0.07205336  0.76602882  0.29153557     1.90120
O1106       O  0.12766915  0.78542783  0.24902656    -0.74490
O1107       O  0.06209474  0.76050875  0.19491465    -0.74340
O1108       O  0.12392883  0.74206749  0.20767390    -0.80000
O1109       O  0.07018145  0.71119485  0.19996693    -0.78200
O1110       O  0.08079367  0.74935408  0.25383861    -1.14340
O1111       O  0.03327002  0.71194460  0.25350207    -0.73530
C1112       C  0.02178609  0.72304762  0.27906630     0.97180
C1113       C  0.12156496  0.80562048  0.26924300     0.93580
Al1114     Al  0.09453780  0.77240430  0.22285906     1.55560
O1115       O  0.10206171  0.74125390  0.31284792    -0.78150
C1116       C  0.06384783  0.73442107  0.18218968     0.97750
C1117       C  0.04763647  0.81297960  0.25196647     0.92630
O1118       O  0.04168160  0.79310533  0.27331246    -0.83470
O1119       O  0.28663196  0.79403014  0.24725231    -0.82930
C1120       C  0.38850075  0.72375066  0.28818999     0.96420
O1121       O  0.37715321  0.74507955  0.30522517    -0.72050
O1122       O  0.37622968  0.79066331  0.26612219    -0.75640
Al1123     Al  0.34590018  0.77485022  0.29253517     1.48980
C1124       C  0.36844968  0.81004234  0.24514081     0.91670
O1125       O  0.34597986  0.74948906  0.20053905    -0.81860
O1126       O  0.28345865  0.71269192  0.25873768    -0.75420
Al1127     Al  0.31660118  0.77092913  0.22494386     1.90120
O1128       O  0.33426541  0.70357437  0.21899977    -0.74490
O1129       O  0.32289318  0.71148984  0.31199689    -0.74340
O1130       O  0.37111026  0.70848493  0.26921814    -0.80000
O1131       O  0.31697727  0.76075137  0.32118408    -0.78200
O1132       O  0.32982793  0.75257424  0.26084459    -1.14340
O1133       O  0.31811091  0.80981508  0.28650640    -0.73530
C1134       C  0.29286409  0.81236346  0.27043973     0.97180
C1135       C  0.34850522  0.72046267  0.19912865     0.93580
Al1136     Al  0.32767486  0.71185654  0.26458271     1.55560
O1137       O  0.34463225  0.80554747  0.22741696    -0.78150
C1138       C  0.31732553  0.73355998  0.33130444     0.97750
C1139       C  0.26979070  0.72416560  0.23390168     0.92630
O1140       O  0.28466766  0.74124403  0.21503964    -0.83470
O1141       O  0.33707068  0.64705544  0.99178110    -0.82930
C1142       C  0.40657091  0.74791722  0.03921834     0.96420
O1143       O  0.38425891  0.73637822  0.05434185    -0.72050
O1144       O  0.34181683  0.73593664  0.01030168    -0.75640
Al1145     Al  0.35502572  0.70528167  0.03920354     1.48980
C1146       C  0.32174592  0.72781669  0.98979036     0.91670
O1147       O  0.38561896  0.70741221  0.95030697    -0.81860
O1148       O  0.41768111  0.64343671  0.01279686    -0.75420
Al1149     Al  0.36234214  0.67752369  0.97233122     1.90120
O1150       O  0.43010730  0.69394622  0.97279373    -0.74490
O1151       O  0.41667271  0.68295622  0.06511190    -0.74340
O1152       O  0.42254755  0.73086762  0.02159769    -0.80000
O1153       O  0.36721361  0.67574899  0.06970573    -0.78200
O1154       O  0.37870014  0.68966350  0.00999810    -1.14340
O1155       O  0.32022140  0.67759725  0.02999361    -0.73530
C1156       C  0.31705550  0.65361153  0.01246714     0.97180
C1157       C  0.41472556  0.70858803  0.95108937     0.93580
Al1158     Al  0.41903631  0.68745725  0.01765493     1.55560
O1159       O  0.32756149  0.70549252  0.97131925    -0.78150
C1160       C  0.39362495  0.67736593  0.08253575     0.97750
C1161       C  0.40756762  0.63037196  0.98706175     0.92630
O1162       O  0.39239220  0.64584772  0.96599086    -0.83470
O1163       O  0.37714940  0.89189660  0.03989857    -0.82930
C1164       C  0.39714951  0.49958825  0.97178154     0.96420
O1165       O  0.41693090  0.97860527  0.97717629    -0.72050
O1166       O  0.42679622  0.95414994  0.03335531    -0.75640
Al1167     Al  0.41353132  0.93703003  0.99269453     1.48980
C1168       C  0.41358841  0.95953161  0.05941656     0.91670
O1169       O  0.33277544  0.96583567  0.04443873    -0.81860
O1170       O  0.32232101  0.91982162  0.96628632    -0.75420
Al1171     Al  0.35660522  0.92979792  0.03799554     1.90120
O1172       O  0.31979283  0.97454247  0.99435131    -0.74490
O1173       O  0.36736423  0.94223181  0.93357051    -0.74340
O1174       O  0.36875303  0.99364207  0.96883780    -0.80000
O1175       O  0.40967658  0.91969747  0.94942664    -0.78200
O1176       O  0.37255836  0.94065468  0.99980459    -1.14340
O1177       O  0.41637750  0.89527628  0.00812853    -0.73530
C1178       C  0.40037053  0.87999436  0.02758381     0.97180
C1179       C  0.31624689  0.97912076  0.02357959     0.93580
Al1180     Al  0.34728512  0.95603682  0.96870935     1.55560
O1181       O  0.38664198  0.95023790  0.06361536    -0.78150
C1182       C  0.39049585  0.92689416  0.92733586     0.97750
C1183       C  0.31177851  0.90473767  0.98973844     0.92630
O1184       O  0.32262159  0.90799867  0.01830961    -0.83470
C1185       C  0.42316434  0.54408847  0.99837402    -0.10290
C1186       C  0.40661934  0.53216049  0.97147360     0.05900
C1187       C  0.39448197  0.55250064  0.94803521    -0.04060
C1188       C  0.39734114  0.58425783  0.95267107    -0.08510
C1189       C  0.41146413  0.59667422  0.98102150     0.05020
C1190       C  0.42552362  0.57604678  0.00353397    -0.04010
Br1191     Br  0.44647214  0.58918566  0.04275348    -0.03230
H1192       H  0.43235511  0.52847081  0.01671092     0.08930
H1193       H  0.38682168  0.59922818  0.93453601     0.06950
Br1194     Br  0.37257499  0.53801947  0.90987217    -0.03660
C1195       C  0.42588041  0.83017235  0.01406040    -0.10290
C1196       C  0.40751464  0.84710968  0.03507485     0.05900
C1197       C  0.39411377  0.83136912  0.06126611    -0.04060
C1198       C  0.39614760  0.79923727  0.06341103    -0.08510
C1199       C  0.41195195  0.78189816  0.04049177     0.05020
C1200       C  0.42857625  0.79801973  0.01672442    -0.03530
Br1201     Br  0.45432416  0.77829326  0.98589340    -0.03230
H1202       H  0.43717357  0.84178056  0.99444062     0.08930
H1203       H  0.38422774  0.78764368  0.08262801     0.06950
Br1204     Br  0.37241901  0.85164605  0.09521416    -0.03660
C1205       C  0.36136610  0.67543772  0.16411624    -0.10290
C1206       C  0.36725154  0.70616899  0.17343914     0.05900
C1207       C  0.39048984  0.72267468  0.15725853    -0.04060
C1208       C  0.40408610  0.70978310  0.13001517    -0.08510
C1209       C  0.39469952  0.68085316  0.11804549     0.05020
C1210       C  0.37493383  0.66280640  0.13675596    -0.03530
Br1211     Br  0.36331104  0.62192729  0.12342502    -0.03230
H1212       H  0.34470265  0.66174921  0.17685527     0.08930
H1213       H  0.41929562  0.72403129  0.11597171     0.06950
Br1214     Br  0.40406555  0.76338081  0.16976395    -0.03660
C1215       C  0.18702680  0.73203108  0.20000414    -0.10290
C1216       C  0.17036796  0.71503038  0.22251806     0.05900
C1217       C  0.18730455  0.69736264  0.24581097    -0.04060
C1218       C  0.21958329  0.69964011  0.24805510    -0.08510
C1219       C  0.23607641  0.71869753  0.22716088     0.05020
C1220       C  0.21924186  0.73392379  0.20183403    -0.03530
Br1221     Br  0.23748269  0.75933160  0.16936530    -0.03230
H1222       H  0.17482149  0.74517578  0.18140120     0.08930
H1223       H  0.23177123  0.68702464  0.26706560     0.06950
Br1224     Br  0.16857813  0.67031712  0.27635141    -0.03660
C1225       C  0.47002242  0.70045008  0.26487877    -0.10290
C1226       C  0.48807752  0.71992673  0.28499234     0.05900
C1227       C  0.47289702  0.73756518  0.30874805    -0.04060
C1228       C  0.44078695  0.73652820  0.31058380    -0.08510
C1229       C  0.42256382  0.71852275  0.28919477     0.05020
C1230       C  0.43779734  0.69946350  0.26673528    -0.03530
Br1231     Br  0.41677089  0.67227189  0.23666357    -0.03230
H1232       H  0.48095520  0.68636900  0.24682146     0.08930
H1233       H  0.42990957  0.75120114  0.32817038     0.06950
Br1234     Br  0.49324298  0.76564538  0.33845787    -0.03660
C1235       C  0.43725215  0.48509191  0.69776038    -0.10290
C1236       C  0.42048441  0.96593562  0.71826188     0.05900
C1237       C  0.43733489  0.94630416  0.73980390    -0.04060
C1238       C  0.46963393  0.94818447  0.74212039    -0.08510
C1239       C  0.48625518  0.96889923  0.72311474     0.05020
C1240       C  0.46948194  0.98687162  0.69989817    -0.03530
Br1241     Br  0.48786630  0.51627927  0.67139975    -0.03230
H1242       H  0.42512849  0.50006165  0.68071799     0.08930
H1243       H  0.48179741  0.93367044  0.75956455     0.06950
Br1244     Br  0.41849411  0.91677431  0.76773317    -0.03660
C1245       C  0.18473376  0.94692606  0.75832012    -0.10290
C1246       C  0.17208723  0.96104278  0.78560286     0.05900
C1247       C  0.19243380  0.97258866  0.81001745    -0.04060
C1248       C  0.22427263  0.97165904  0.80575352    -0.08510
C1249       C  0.23694932  0.95989296  0.77724296     0.05020
C1250       C  0.21662387  0.94641870  0.75377007    -0.03530
Br1251     Br  0.22985893  0.92868266  0.71384321    -0.03230
H1252       H  0.16962728  0.93793649  0.73918987     0.08930
H1253       H  0.23913265  0.98159760  0.82454190     0.06950
Br1254     Br  0.17872671  0.49088688  0.84948927    -0.03660
C1255       C  0.35708988  0.91522345  0.84739455    -0.10290
C1256       C  0.36873866  0.94213417  0.83334107     0.05900
C1257       C  0.39637964  0.95494724  0.84640973    -0.04060
C1258       C  0.40905245  0.94362327  0.87563195    -0.08510
C1259       C  0.39394246  0.92043088  0.89276665     0.05020
C1260       C  0.36956132  0.90433342  0.87690863    -0.03530
Br1261     Br  0.34821385  0.87190397  0.89860105    -0.03230
H1262       H  0.33639202  0.90450840  0.83726922     0.08930
H1263       H  0.42787158  0.95625388  0.88733349     0.06950
Br1264     Br  0.41657692  0.98935948  0.82669487    -0.03660
C1265       C  0.12420461  0.90622254  0.63058443    -0.10290
C1266       C  0.14567117  0.92454336  0.61436938     0.05900
C1267       C  0.15703720  0.95129599  0.63009149    -0.04060
C1268       C  0.14260583  0.96229526  0.65771460    -0.08510
C1269       C  0.11738273  0.94660402  0.67072535     0.05020
C1270       C  0.10977278  0.91706101  0.65830572    -0.03530
Br1271     Br  0.07695497  0.89225798  0.67458332    -0.03230
H1272       H  0.11537165  0.88540159  0.61901925     0.08930
H1273       H  0.15003903  0.48422315  0.66794595     0.06950
Br1274     Br  0.18869287  0.47644519  0.61213381    -0.03660
C1275       C  0.15815545  0.69587021  0.38269006    -0.10290
C1276       C  0.14353043  0.67073397  0.39711531     0.05900
C1277       C  0.12045737  0.65470650  0.37905963    -0.04060
C1278       C  0.10860688  0.66719445  0.35008219    -0.08510
C1279       C  0.11966837  0.69546551  0.33858483     0.05020
C1280       C  0.14634129  0.70846259  0.35373419    -0.03530
Br1281     Br  0.16685659  0.74422267  0.33711877    -0.03230
H1282       H  0.17625877  0.70822795  0.39590066     0.08930
H1283       H  0.08904448  0.65606745  0.33805435     0.06950
Br1284     Br  0.10142232  0.61809886  0.39549809    -0.03660
C1285       C  0.17711324  0.57830888  0.51346670    -0.10290
C1286       C  0.16045744  0.59554259  0.53585611     0.05900
C1287       C  0.14628954  0.57942965  0.56134548    -0.04060
C1288       C  0.14660247  0.54711233  0.56193464    -0.08510
C1289       C  0.16104544  0.52983746  0.53792204     0.05020
C1290       C  0.17776263  0.54600278  0.51433194    -0.03530
Br1291     Br  0.20066372  0.52632689  0.48107255    -0.03230
H1292       H  0.18886675  0.58994970  0.49417920     0.08930
H1293       H  0.13430402  0.53538398  0.58078770     0.06950
Br1294     Br  0.12477002  0.59907799  0.59572820    -0.03660
C1295       C  0.14570150  0.79600864  0.44790637    -0.10290
C1296       C  0.16170375  0.77880972  0.47169838     0.05900
C1297       C  0.17879594  0.79523318  0.49599904    -0.04060
C1298       C  0.17678039  0.82750856  0.49786656    -0.08510
C1299       C  0.15871501  0.84453963  0.47556284     0.05020
C1300       C  0.14436530  0.82831132  0.44922274    -0.03530
Br1301     Br  0.12152593  0.84766506  0.41420256    -0.03230
H1302       H  0.13313357  0.78418061  0.42852017     0.08930
H1303       H  0.18878813  0.83926037  0.51767142     0.06950
Br1304     Br  0.20453318  0.77588769  0.52862609    -0.03660
C1305       C  0.04866095  0.50428503  0.87697225    -0.10290
C1306       C  0.06588581  0.98122368  0.86177577     0.05900
C1307       C  0.09110673  0.46818012  0.87901448    -0.04060
C1308       C  0.10230700  0.48244332  0.90741169    -0.08510
C1309       C  0.08795980  0.50890495  0.91972821     0.05020
C1310       C  0.05963705  0.51851567  0.90545672    -0.03530
Br1311     Br  0.03744450  0.55402220  0.92003945    -0.03230
H1312       H  0.02907058  0.01445137  0.86408989     0.08930
H1313       H  0.12325894  0.47374232  0.91900080     0.06950
Br1314     Br  0.11399227  0.43408241  0.86231995    -0.03660
C1315       C  0.24427221  0.61233953  0.04066575    -0.10290
C1316       C  0.23083505  0.60291423  0.01089879     0.05900
C1317       C  0.24651080  0.60977638  0.98221539    -0.04060
C1318       C  0.27492299  0.62507136  0.98378960    -0.08510
C1319       C  0.28811535  0.63510788  0.01334690     0.05020
C1320       C  0.27220269  0.62898309  0.04202694    -0.03530
Br1321     Br  0.28778401  0.64201158  0.08370579    -0.03230
H1322       H  0.23275823  0.60714715  0.06293057     0.08930
H1323       H  0.28650651  0.62981121  0.96144885     0.06950
Br1324     Br  0.23149908  0.59772345  0.93986143    -0.03660
C1325       C  0.26480527  0.97608867  0.04051905    -0.10290
C1326       C  0.28853282  0.99562262  0.03120816     0.05900
C1327       C  0.28155214  0.52126033  0.01161485    -0.04060
C1328       C  0.25272427  0.52333506  0.99616946    -0.08510
C1329       C  0.22961513  0.50154513  0.00221337     0.05020
C1330       C  0.23570972  0.97822943  0.02566309    -0.03530
Br1331     Br  0.20637469  0.94727887  0.03770933    -0.03230
H1332       H  0.27005925  0.95615506  0.05555126     0.08930
H1333       H  0.24827293  0.54242736  0.97990934     0.06950
Br1334     Br  0.31299147  0.55037803  0.00081065    -0.03660
C1335       C  0.09256741  0.90688616  0.01132851    -0.10290
C1336       C  0.11083237  0.88999276  0.03352080     0.05900
C1337       C  0.12582829  0.90630664  0.05941265    -0.04060
C1338       C  0.12469363  0.93856303  0.06046856    -0.08510
C1339       C  0.10846324  0.95559328  0.03676693     0.05020
C1340       C  0.09085941  0.93914657  0.01289391    -0.03530
Br1341     Br  0.06467072  0.95835720  0.98056799    -0.03230
H1342       H  0.08011553  0.89502178  0.99189459     0.08930
H1343       H  0.13760813  0.95047984  0.07954884     0.06950
Br1344     Br  0.14935354  0.88722489  0.09413077    -0.03660
C1345       C  0.11246635  0.68707869  0.94692359    -0.10290
C1346       C  0.10346773  0.70401056  0.97409931     0.05900
C1347       C  0.09144819  0.68774209  0.00053665    -0.04060
C1348       C  0.09179696  0.65555495  0.00079373    -0.08510
C1349       C  0.10357807  0.63857921  0.97499945     0.05020
C1350       C  0.11211644  0.65472423  0.94686285    -0.03530
Br1351     Br  0.12367122  0.63462917  0.90755403    -0.03230
H1352       H  0.12084358  0.69907300  0.92592201     0.08930
H1353       H  0.08428917  0.64384285  0.02233895     0.06950
Br1354     Br  0.07685621  0.70706235  0.03879238    -0.03660
C1355       C  0.09711867  0.72461046  0.13677602    -0.10290
C1356       C  0.06813336  0.73425367  0.14690820     0.05900
C1357       C  0.05104062  0.75482908  0.12705339    -0.04060
C1358       C  0.06440532  0.76814914  0.09992202    -0.08510
C1359       C  0.09509881  0.76168733  0.09228152     0.05020
C1360       C  0.11102801  0.73852342  0.11034650    -0.03530
Br1361     Br  0.15222056  0.72516772  0.10157377    -0.03230
H1362       H  0.11068622  0.70890858  0.15178173     0.08930
H1363       H  0.05128119  0.78495728  0.08589988     0.06950
Br1364     Br  0.01045281  0.76773237  0.13826530    -0.03660
C1365       C  0.28460538  0.75468539  0.02351970    -0.10290
C1366       C  0.28968598  0.73710891  0.99545128     0.05900
C1367       C  0.26436630  0.72244869  0.97976629    -0.04060
C1368       C  0.23517492  0.72533845  0.99249561    -0.08510
C1369       C  0.23007905  0.74368573  0.02001614     0.05020
C1370       C  0.25552823  0.75741628  0.03630400    -0.03530
Br1371     Br  0.25281392  0.78053129  0.07590922    -0.03230
H1372       H  0.30365299  0.76559331  0.03667069     0.08930
H1373       H  0.21598933  0.71474243  0.97927921     0.06950
Br1374     Br  0.26715452  0.69921210  0.94027084    -0.03660
C1375       C  0.26038467  0.83466232  0.99280981    -0.10290
C1376       C  0.23118538  0.84818073  0.98873364     0.05900
C1377       C  0.22899701  0.87949023  0.97999682    -0.04060
C1378       C  0.25588449  0.89736478  0.97808027    -0.08510
C1379       C  0.28499897  0.88424720  0.98471735     0.05020
C1380       C  0.28718441  0.85247718  0.99125524    -0.03530
Br1381     Br  0.32625264  0.83270302  0.99885767    -0.03230
H1382       H  0.26229923  0.81039184  0.99852245     0.08930
H1383       H  0.25397571  0.92181164  0.97280517     0.06950
Br1384     Br  0.18985613  0.89808382  0.96947912    -0.03660
C1385       C  0.42942077  0.76288402  0.88108487    -0.10290
C1386       C  0.45487937  0.74848214  0.86737509     0.05900
C1387       C  0.47103138  0.72586927  0.88565096    -0.04060
C1388       C  0.45886328  0.71464183  0.91435605    -0.08510
C1389       C  0.43063210  0.72567415  0.92531613     0.05020
C1390       C  0.41710902  0.75161192  0.90973266    -0.03530
Br1391     Br  0.38124647  0.77200404  0.92566485    -0.03230
H1392       H  0.41681133  0.78048087  0.86761643     0.08930
H1393       H  0.47028411  0.69557456  0.92665949     0.06950
Br1394     Br  0.50760510  0.70673607  0.87000588    -0.03660
C1395       C  0.04393405  0.61778144  0.75725427    -0.10290
C1396       C  0.03078331  0.58952990  0.76572717     0.05900
C1397       C  0.50086320  0.58914959  0.77769781    -0.04060
C1398       C  0.48345548  0.61648292  0.77789025    -0.08510
C1399       C  0.49582706  0.64461829  0.76687800     0.05020
C1400       C  0.02702330  0.64521169  0.75804368    -0.03530
Br1401     Br  0.04859260  0.68269094  0.74873529    -0.03230
H1402       H  0.06755629  0.61845459  0.74957681     0.08930
H1403       H  0.45996990  0.61554599  0.78609095     0.06950
Br1404     Br  0.48417064  0.55213279  0.79577141    -0.03660
C1405       C  0.35757255  0.60853350  0.77311298    -0.10290
C1406       C  0.37791067  0.58476049  0.76493494     0.05900
C1407       C  0.40267995  0.59157430  0.74457977    -0.04060
C1408       C  0.40686356  0.62149201  0.73352831    -0.08510
C1409       C  0.38692564  0.64527759  0.74225650     0.05020
C1410       C  0.36140419  0.63837322  0.76131408    -0.03530
Br1411     Br  0.33062651  0.66858667  0.77118303    -0.03230
H1412       H  0.33752790  0.60360207  0.78721015     0.08930
H1413       H  0.42698858  0.62640472  0.71947129     0.06950
Br1414     Br  0.43173869  0.56146065  0.73016396    -0.03660
C1415       C  0.21972247  0.72933635  0.63370951    -0.10290
C1416       C  0.20196939  0.75176830  0.64930643     0.05900
C1417       C  0.17668952  0.76483670  0.63216556    -0.04060
C1418       C  0.16651912  0.75162125  0.60287757    -0.08510
C1419       C  0.18141508  0.72577242  0.58990174     0.05020
C1420       C  0.20954465  0.71599289  0.60442321    -0.03530
Br1421     Br  0.23253055  0.68143860  0.58881990    -0.03230
H1422       H  0.23931236  0.71912257  0.64654100     0.08930
H1423       H  0.14557687  0.76034381  0.59128056     0.06950
Br1424     Br  0.15176920  0.79687288  0.65001842    -0.03660
C1425       C  0.04833904  0.78595490  0.74998409    -0.10290
C1426       C  0.03056158  0.76736139  0.72871569     0.05900
C1427       C  0.04598224  0.75166984  0.70364768    -0.04060
C1428       C  0.07816761  0.75257639  0.70248603    -0.08510
C1429       C  0.09611904  0.76907443  0.72540319     0.05020
C1430       C  0.08058191  0.78729207  0.74837372    -0.03530
Br1431     Br  0.10123493  0.81368444  0.77943412    -0.03230
H1432       H  0.03719899  0.79890988  0.76879078     0.08930
H1433       H  0.08931766  0.73899667  0.68415685     0.06950
Br1434     Br  0.02584079  0.72623379  0.67120258    -0.03660
C1435       C  0.33392326  0.78297661  0.76722118    -0.10290
C1436       C  0.34841360  0.76581278  0.79224642     0.05900
C1437       C  0.32965762  0.75146281  0.81523704    -0.04060
C1438       C  0.29753018  0.75301457  0.81169296    -0.08510
C1439       C  0.28296257  0.76837906  0.78539568     0.05020
C1440       C  0.30175338  0.78430583  0.76348011    -0.03530
Br1441     Br  0.28581938  0.80738058  0.72701004    -0.03230
H1442       H  0.34768966  0.79425797  0.74923248     0.08930
H1443       H  0.28389221  0.74089348  0.82918359     0.06950
Br1444     Br  0.34581640  0.72863744  0.85177735    -0.03660
C1445       C  0.14474226  0.82742939  0.88104100    -0.10290
C1446       C  0.12285389  0.80903158  0.89655719     0.05900
C1447       C  0.11162053  0.78255059  0.88030093    -0.04060
C1448       C  0.12659746  0.77166148  0.85299435    -0.08510
C1449       C  0.15211457  0.78739029  0.84069309     0.05020
C1450       C  0.15970001  0.81674068  0.85357544    -0.03530
Br1451     Br  0.19324685  0.84120370  0.83838151    -0.03230
H1452       H  0.15357485  0.84799161  0.89311981     0.08930
H1453       H  0.11926933  0.74986287  0.84237438     0.06950
Br1454     Br  0.07958204  0.75745410  0.89752629    -0.03660
C1455       C  0.24526887  0.62866815  0.72178010    -0.10290
C1456       C  0.24326102  0.64451070  0.75146932     0.05900
C1457       C  0.25685698  0.63079525  0.77950426    -0.04060
C1458       C  0.27124226  0.60198453  0.77748577    -0.08510
C1459       C  0.27377247  0.58654557  0.74785758     0.05020
C1460       C  0.26090678  0.60028635  0.71970575    -0.03530
Br1461     Br  0.26286932  0.58043657  0.67832127    -0.03230
H1462       H  0.23478329  0.63848826  0.70003161     0.08930
H1463       H  0.28135869  0.59187747  0.79928887     0.06950
Br1464     Br  0.25637980  0.64932221  0.82177424    -0.03660
C1465       C  0.15202790  0.59068693  0.77243640    -0.10290
C1466       C  0.13551142  0.58504372  0.74310274     0.05900
C1467       C  0.12412491  0.61036198  0.72519773    -0.04060
C1468       C  0.12716362  0.63995957  0.73793737    -0.08510
C1469       C  0.14257313  0.64558833  0.76789829     0.05020
C1470       C  0.15507451  0.62036667  0.78520191    -0.03530
Br1471     Br  0.17477668  0.62411461  0.82722471    -0.03230
H1472       H  0.16084940  0.57166863  0.78695284     0.08930
H1473       H  0.11800356  0.65885702  0.72348522     0.06950
Br1474     Br  0.10343187  0.60666421  0.68362367    -0.03660
C1475       C  0.29670112  0.50562758  0.62483741    -0.10290
C1476       C  0.31377827  0.98238908  0.64103732     0.05900
C1477       C  0.33947335  0.96987801  0.62560160    -0.04060
C1478       C  0.35064046  0.48423272  0.59799341    -0.08510
C1479       C  0.33625922  0.51061462  0.58473950     0.05020
C1480       C  0.30778557  0.51999741  0.59710603    -0.03530
Br1481     Br  0.28523451  0.55498349  0.58062029    -0.03230
H1482       H  0.27671911  0.51540265  0.63618133     0.08930
H1483       H  0.37175520  0.47568674  0.58785909     0.06950
Br1484     Br  0.36328058  0.93650010  0.64365825    -0.03660
C1485       C  0.48838633  0.61998744  0.52295141    -0.10290
C1486       C  0.48171168  0.59904256  0.49770836     0.05900
C1487       C  0.00316965  0.59646135  0.47248767    -0.04060
C1488       C  0.02993131  0.61495971  0.47295722    -0.08510
C1489       C  0.03648982  0.63529715  0.49868866     0.05020
C1490       C  0.01544595  0.63744497  0.52388407    -0.03530
Br1491     Br  0.02233552  0.66361959  0.56072192    -0.03230
H1492       H  0.47284930  0.62230976  0.54285611     0.08930
H1493       H  0.04609917  0.61284611  0.45358815     0.06950
Br1494     Br  0.99807004  0.56818943  0.43688921    -0.03660
C1495       C  0.00075487  0.51526842  0.52573886    -0.10290
C1496       C  0.47687085  0.49496574  0.51618838     0.05900
C1497       C  0.48299088  0.97153109  0.49334379    -0.04060
C1498       C  0.01243433  0.96850561  0.48145298    -0.08510
C1499       C  0.03639963  0.98828444  0.49168318     0.05020
C1500       C  0.02997464  0.51272886  0.51303890    -0.03530
Br1501     Br  0.05968444  0.54401282  0.52516525    -0.03230
H1502       H  0.99631286  0.53458011  0.54163323     0.08930
H1503       H  0.01687445  0.94934411  0.46535517     0.06950
Br1504     Br  0.45264423  0.94284186  0.47642418    -0.03660
C1505       C  0.35877285  0.78448254  0.63173005    -0.10290
C1506       C  0.37122070  0.81146492  0.61862497     0.05900
C1507       C  0.39296409  0.82835896  0.63757725    -0.04060
C1508       C  0.40572901  0.81561228  0.66602198    -0.08510
C1509       C  0.39704990  0.78603364  0.67615149     0.05020
C1510       C  0.37156849  0.77156342  0.66016444    -0.03530
Br1511     Br  0.35414073  0.73341566  0.67482709    -0.03230
H1512       H  0.34182435  0.77125938  0.61777329     0.08930
H1513       H  0.42433267  0.82777163  0.67861942     0.06950
Br1514     Br  0.40949567  0.86670048  0.62276286    -0.03660
C1515       C  0.33746868  0.90848088  0.49757289    -0.10290
C1516       C  0.35561060  0.89041029  0.47729182     0.05900
C1517       C  0.37044291  0.90547536  0.45140042    -0.04060
C1518       C  0.36944365  0.93765850  0.44869713    -0.08510
C1519       C  0.35353632  0.95595085  0.47068289     0.05020
C1520       C  0.33585653  0.94071682  0.49423496    -0.03530
Br1521     Br  0.30963476  0.96181940  0.52358234    -0.03230
H1522       H  0.32501733  0.89760021  0.51684384     0.08930
H1523       H  0.38242595  0.94856675  0.42982647     0.06950
Br1524     Br  0.39390298  0.88484188  0.41900435    -0.03660
C1525       C  0.37584076  0.68843433  0.56062934    -0.10290
C1526       C  0.35647837  0.70608523  0.54015401     0.05900
C1527       C  0.33732020  0.69021412  0.51716057    -0.04060
C1528       C  0.33960249  0.65802919  0.51380507    -0.08510
C1529       C  0.36040673  0.64066341  0.53300479     0.05020
C1530       C  0.37814737  0.65639251  0.55733891    -0.03530
Br1531     Br  0.40815947  0.63705089  0.58584637    -0.03230
H1532       H  0.39065218  0.69979032  0.57855399     0.08930
H1533       H  0.32536418  0.64658795  0.49544543     0.06950
Br1534     Br  0.30811445  0.71034480  0.48847076    -0.03660
C1535       C  0.35470803  0.73422356  0.41150027    -0.10290
C1536       C  0.33820208  0.75875117  0.42512089     0.05900
C1537       C  0.30853664  0.76554218  0.41206340    -0.04060
C1538       C  0.29825187  0.75101940  0.38340017    -0.08510
C1539       C  0.31726898  0.73036610  0.36686337     0.05020
C1540       C  0.34431497  0.71979315  0.38287184    -0.03530
Br1541     Br  0.37074368  0.68966004  0.36399936    -0.03230
H1542       H  0.37682252  0.72745171  0.42205351     0.08930
H1543       H  0.27724526  0.75927860  0.37152912     0.06950
Br1544     Br  0.28271053  0.79740334  0.42887437    -0.03660
C1545       C  0.48974942  0.74556804  0.53366047    -0.10290
C1546       C  0.47805971  0.74850302  0.50159164     0.05900
C1547       C  0.99856547  0.74908478  0.47602323    -0.04060
C1548       C  0.02994172  0.74588804  0.48268944    -0.08510
C1549       C  0.04150306  0.74200716  0.51465541     0.05020
C1550       C  0.02125499  0.74309790  0.54031044    -0.03530
Br1551     Br  0.03580439  0.74367121  0.58455502    -0.03230
H1552       H  0.47454852  0.74687261  0.55392881     0.08930
H1553       H  0.04515669  0.74497412  0.46240382     0.06950
Br1554     Br  0.48505043  0.75310192  0.43159064    -0.03660
C1555       C  0.00663288  0.83544393  0.51123789    -0.10290
C1556       C  0.47980232  0.85025445  0.52117544     0.05900
C1557       C  0.48150673  0.88093475  0.53194631    -0.04060
C1558       C  0.00949105  0.89703678  0.53057598    -0.08510
C1559       C  0.03614417  0.88288256  0.51858697     0.05020
C1560       C  0.03467727  0.85131136  0.50995264    -0.03530
Br1561     Br  0.07004336  0.82808151  0.49727743    -0.03230
H1562       H  0.00561779  0.81148691  0.50374696     0.08930
H1563       H  0.01011646  0.92100651  0.53811032     0.06950
Br1564     Br  0.44638503  0.90109294  0.54952012    -0.03660
C1565       C  0.16793709  0.01370338  0.37673912    -0.10290
C1566       C  0.19713424  0.00505640  0.36636679     0.05900
C1567       C  0.21567075  0.98649073  0.38690673    -0.04060
C1568       C  0.20306676  0.97228166  0.41391415    -0.08510
C1569       C  0.17203126  0.97692312  0.42135246     0.05020
C1570       C  0.15515708  0.99980637  0.40383621    -0.03530
Br1571     Br  0.11419244  0.01259921  0.41428480    -0.03230
H1572       H  0.15343325  0.02835197  0.36148387     0.08930
H1573       H  0.21715089  0.95631225  0.42801719     0.06950
Br1574     Br  0.25757738  0.47801352  0.37705019    -0.03660
C1575       C  0.14661453  0.57724316  0.13106068    -0.10290
C1576       C  0.12512232  0.55922584  0.11310667     0.05900
C1577       C  0.11611275  0.53074317  0.12608535    -0.04060
C1578       C  0.13302676  0.51807148  0.15198985    -0.08510
C1579       C  0.15619011  0.53491627  0.16880590     0.05020
C1580       C  0.16178933  0.56563259  0.15895259    -0.03530
Br1581     Br  0.19262464  0.59154761  0.17930648    -0.03230
H1582       H  0.15406263  0.59917782  0.12136858     0.08930
H1583       H  0.12810082  0.99446714  0.15862898     0.06950
Br1584     Br  0.08303889  0.00642216  0.10758301    -0.03660
C1585       C  0.22209548  0.86360210  0.26717227    -0.10290
C1586       C  0.23490385  0.89213664  0.27624510     0.05900
C1587       C  0.26464636  0.89290234  0.29031757    -0.04060
C1588       C  0.28316732  0.86633879  0.28995664    -0.08510
C1589       C  0.27157313  0.83838651  0.27700017     0.05020
C1590       C  0.23991886  0.83664727  0.26839076    -0.03530
Br1591     Br  0.21965103  0.79776779  0.26088831    -0.03230
H1592       H  0.19832028  0.86237903  0.25877981     0.08930
H1593       H  0.30677325  0.86777485  0.29908630     0.06950
Br1594     Br  0.27901943  0.92930537  0.31234238    -0.03660
C1595       C  0.14252504  0.87725429  0.22227510    -0.10290
C1596       C  0.12949327  0.90027963  0.24124179     0.05900
C1597       C  0.11207367  0.89156582  0.26809361    -0.04060
C1598       C  0.11255123  0.86103770  0.27843475    -0.08510
C1599       C  0.12810777  0.83815983  0.26122012     0.05020
C1600       C  0.14234737  0.84657229  0.23192273    -0.03530
Br1601     Br  0.16327964  0.81888897  0.20338583    -0.03230
H1602       H  0.15536447  0.88342618  0.20111278     0.08930
H1603       H  0.09968611  0.85508903  0.29959154     0.06950
Br1604     Br  0.08734193  0.91988395  0.29216027    -0.03660
C1605       C  0.46851806  0.98431761  0.12754837    -0.10290
C1606       C  0.44953038  0.00469205  0.14463077     0.05900
C1607       C  0.42185614  0.01483512  0.12935107    -0.04060
C1608       C  0.41166995  0.00116565  0.10026942    -0.08510
C1609       C  0.42883435  0.97789288  0.08548874     0.05020
C1610       C  0.45840004  0.97088578  0.09820273    -0.03530
Br1611     Br  0.48368572  0.93976642  0.07933179    -0.03230
H1612       H  0.48980330  0.47612088  0.13887298     0.08930
H1613       H  0.38922121  0.00741638  0.09013301     0.06950
Br1614     Br  0.39434211  0.04335481  0.14916460    -0.03660
C1615       C  0.33349350  0.53423704  0.24283004    -0.10290
C1616       C  0.34757556  0.51128980  0.22401830     0.05900
C1617       C  0.32843734  0.98906283  0.20832789    -0.04060
C1618       C  0.29672068  0.98932305  0.21311944    -0.08510
C1619       C  0.28280496  0.51146574  0.23295356     0.05020
C1620       C  0.30158180  0.53461162  0.24727486    -0.03530
Br1621     Br  0.28537972  0.56779561  0.27245579    -0.03230
H1622       H  0.34744856  0.55180038  0.25488448     0.08930
H1623       H  0.28289791  0.97132263  0.20163253     0.06950
Br1624     Br  0.34320160  0.95665778  0.18084912    -0.03660
C1625       C  0.04947337  0.52196237  0.25011068    -0.10290
C1626       C  0.03304073  0.53057007  0.27714103     0.05900
C1627       C  0.04918242  0.53727704  0.30649399    -0.04060
C1628       C  0.08145373  0.53435807  0.30839067    -0.08510
C1629       C  0.09759633  0.52421889  0.28144559     0.05020
C1630       C  0.08110945  0.01769617  0.25242279    -0.03530
Br1631     Br  0.09896628  0.99669740  0.21722327    -0.03230
H1632       H  0.03726178  0.01527094  0.22791186     0.08930
H1633       H  0.09376958  0.53904602  0.33105079     0.06950
Br1634     Br  0.02812285  0.55009300  0.34436348    -0.03660
C1635       C  0.41306457  0.56823746  0.35009552    -0.10290
C1636       C  0.40372283  0.53967621  0.33712147     0.05900
C1637       C  0.37778479  0.52484509  0.35003298    -0.04060
C1638       C  0.36452728  0.53646288  0.37810168    -0.08510
C1639       C  0.37717144  0.56238199  0.39401241     0.05020
C1640       C  0.40004267  0.57959719  0.37833336    -0.03530
Br1641     Br  0.41777940  0.61607349  0.39771446    -0.03230
H1642       H  0.43231065  0.58046797  0.33993835     0.08930
H1643       H  0.34698156  0.52289121  0.38968261     0.06950
Br1644     Br  0.36044921  0.48786291  0.33132394    -0.03660
C1645       C  0.52510789  0.85811149  0.22185576    -0.10290
C1646       C  0.03157100  0.84330459  0.25154294     0.05900
C1647       C  0.02507210  0.85919759  0.28050567    -0.04060
C1648       C  0.01187319  0.88864826  0.27927746    -0.08510
C1649       C  0.50436102  0.90291534  0.24968989     0.05020
C1650       C  0.51118658  0.88738680  0.22072304    -0.03530
Br1651     Br  0.50266482  0.90549781  0.17908064    -0.03230
H1652       H  0.53056953  0.84669409  0.19939265     0.08930
H1653       H  0.00643245  0.90007232  0.30175355     0.06950
Br1654     Br  0.03482740  0.84307101  0.32281208    -0.03660
C1655       C  0.42066512  0.87427815  0.27282283    -0.10290
C1656       C  0.39929956  0.89853459  0.27393656     0.05900
C1657       C  0.36883006  0.89357156  0.26282282    -0.04060
C1658       C  0.36019542  0.86517289  0.25002685    -0.08510
C1659       C  0.38141786  0.84094079  0.24866655     0.05020
C1660       C  0.41198077  0.84559353  0.26004285    -0.03530
Br1661     Br  0.44286984  0.81409613  0.25677860    -0.03230
H1662       H  0.44461877  0.87825664  0.27966536     0.08930
H1663       H  0.33633284  0.86167985  0.24242553     0.06950
Br1664     Br  0.33865511  0.92568025  0.26292919    -0.03660
O1665       O  0.98751945  0.50885609  0.29676719    -0.82930
C1666       C  0.88188564  0.00927333  0.22466047     0.96420
O1667       O  0.89740340  0.02761379  0.24239766    -0.72050
O1668       O  0.93494418  0.04109189  0.29046136    -0.75640
Al1669     Al  0.94086998  0.02950000  0.24570461     1.48980
C1670       C  0.92254215  0.02484363  0.31208548     0.91670
O1671       O  0.93417092  0.43779810  0.29197642    -0.81860
O1672       O  0.96094399  0.43217881  0.23249164    -0.75420
Al1673     Al  0.95868242  0.47521066  0.29074355     1.90120
O1674       O  0.90225658  0.44681739  0.25150880    -0.74490
O1675       O  0.95729963  0.47842276  0.19309792    -0.74340
O1676       O  0.89561778  0.48853677  0.20892496    -0.80000
O1677       O  0.94428404  0.02671676  0.19819578    -0.78200
O1678       O  0.94365236  0.48922891  0.25317114    -1.14340
O1679       O  0.98429055  0.03331081  0.24988875    -0.73530
C1680       C  0.99964834  0.02515317  0.27504827     0.97180
C1681       C  0.91126463  0.42993920  0.27430690     0.93580
Al1682     Al  0.93016230  0.46337294  0.22354259     1.55560
O1683       O  0.92723857  0.49604785  0.31320924    -0.78150
C1684       C  0.95226327  0.00424087  0.18045830     0.97750
C1685       C  0.98518691  0.43120037  0.25026155     0.92630
O1686       O  0.99079548  0.45220036  0.27106778    -0.83470
O1687       O  0.72628652  0.43908347  0.24800790    -0.82930
C1688       C  0.63080887  0.01744181  0.28374233     0.96420
O1689       O  0.64049831  0.49565844  0.30172648    -0.72050
O1690       O  0.63776026  0.45013641  0.26162811    -0.75640
Al1691     Al  0.66917765  0.46339649  0.29001086     1.48980
C1692       C  0.64390183  0.43092237  0.24018079     0.91670
O1693       O  0.67268672  0.49025943  0.19764112    -0.81860
O1694       O  0.73601443  0.02102728  0.26185912    -0.75420
Al1695     Al  0.69902865  0.46579763  0.22414933     1.90120
O1696       O  0.68741345  0.03476825  0.21812012    -0.74490
O1697       O  0.69565131  0.02463351  0.31179851    -0.74340
O1698       O  0.64885621  0.03126995  0.26524235    -0.80000
O1699       O  0.69968308  0.47505221  0.32043082    -0.78200
O1700       O  0.68691384  0.48466698  0.25944692    -1.14340
O1701       O  0.69307092  0.42604095  0.28480432    -0.73530
C1702       C  0.71746745  0.42078165  0.26973989     0.97180
C1703       C  0.67319048  0.01939083  0.19615267     0.93580
Al1704     Al  0.69202394  0.02510569  0.26406976     1.55560
O1705       O  0.66760842  0.43465192  0.22350989    -0.78150
C1706       C  0.70002715  0.00211625  0.33110530     0.97750
C1707       C  0.74907875  0.00862415  0.23797960     0.92630
O1708       O  0.73357330  0.49231657  0.21790059    -0.83470
O1709       O  0.93085332  0.33976685  0.49671976    -0.82930
C1710       C  0.86078133  0.24035983  0.54017016     0.96420
O1711       O  0.88231032  0.25242653  0.55744011    -0.72050
O1712       O  0.92717283  0.25116856  0.51815563    -0.75640
Al1713     Al  0.91211830  0.28291413  0.54401130     1.48980
C1714       C  0.94603722  0.25855614  0.49717695     0.91670
O1715       O  0.88273591  0.27859350  0.45254804    -0.81860
O1716       O  0.84993047  0.34471826  0.51037291    -0.75420
Al1717     Al  0.90582968  0.30892623  0.47577855     1.90120
O1718       O  0.83808433  0.29274162  0.47127327    -0.74490
O1719       O  0.84996812  0.30651147  0.56409264    -0.74340
O1720       O  0.84484490  0.25720187  0.52137374    -0.80000
O1721       O  0.89929810  0.31364602  0.57207409    -0.78200
O1722       O  0.88894138  0.29769271  0.51226334    -1.14340
O1723       O  0.94702288  0.30966605  0.53665870    -0.73530
C1724       C  0.95053808  0.33310259  0.51882530     0.97180
C1725       C  0.85360163  0.27751916  0.45110124     0.93580
Al1726     Al  0.84847198  0.30054854  0.51662191     1.55560
O1727       O  0.93998042  0.28065514  0.47815730    -0.78150
C1728       C  0.87276839  0.31278524  0.58300008     0.97750
C1729       C  0.86052515  0.35694226  0.48493958     0.92630
O1730       O  0.87631874  0.34079269  0.46603204    -0.83470
O1731       O  0.87850072  0.09033270  0.54684802    -0.82930
C1732       C  0.86006701  0.48987040  0.47148931     0.96420
O1733       O  0.84450648  0.00778209  0.48859953    -0.72050
O1734       O  0.83842299  0.04387868  0.53818714    -0.75640
Al1735     Al  0.85040938  0.05098693  0.49368305     1.48980
C1736       C  0.85285766  0.02839991  0.55993835     0.91670
O1737       O  0.94031513  0.02735734  0.54085359    -0.81860
O1738       O  0.94968358  0.05547966  0.48292883    -0.75420
Al1739     Al  0.90691185  0.05710487  0.53987204     1.90120
O1740       O  0.92482758  0.99808565  0.50138395    -0.74490
O1741       O  0.90397857  0.05990034  0.44273925    -0.74340
O1742       O  0.88304409  0.50042310  0.45669579    -0.80000
O1743       O  0.85395783  0.05684763  0.44637345    -0.78200
O1744       O  0.89040031  0.04632586  0.50186958    -1.14340
O1745       O  0.85388902  0.09496780  0.49993460    -0.73530
C1746       C  0.86431016  0.10699703  0.52618169     0.97180
C1747       C  0.94511195  0.00492958  0.52205277     0.93580
Al1748     Al  0.91370402  0.02964364  0.47286191     1.55560
O1749       O  0.88200899  0.02813332  0.56106946    -0.78150
C1750       C  0.87772143  0.06164647  0.42970170     0.97750
C1751       C  0.95327235  0.07966396  0.50003651     0.92630
O1752       O  0.93345368  0.08653634  0.52082432    -0.83470
O1753       O  0.73411457  0.24956258  0.80139249    -0.82930
C1754       C  0.63005802  0.26306789  0.72735111     0.96420
O1755       O  0.64760586  0.27926129  0.74528092    -0.72050
O1756       O  0.68497968  0.28697681  0.79484553    -0.75640
Al1757     Al  0.69107076  0.27566410  0.74995680     1.48980
C1758       C  0.67075270  0.27165575  0.81597521     0.91670
O1759       O  0.67422521  0.18387939  0.79394063    -0.81860
O1760       O  0.70065080  0.17660004  0.73545954    -0.75420
Al1761     Al  0.70203922  0.21922808  0.79398206     1.90120
O1762       O  0.64273724  0.19815749  0.75559526    -0.74490
O1763       O  0.70079088  0.22313629  0.69636999    -0.74340
O1764       O  0.64107293  0.24024281  0.71223751    -0.80000
O1765       O  0.69574743  0.27296692  0.70288182    -0.78200
O1766       O  0.68899235  0.23532363  0.75659906    -1.14340
O1767       O  0.73490847  0.27451241  0.75525250    -0.73530
C1768       C  0.74892375  0.26448812  0.78042978     0.97180
C1769       C  0.65152521  0.17788017  0.77515762     0.93580
Al1770     Al  0.67253465  0.21127811  0.72687719     1.55560
O1771       O  0.67243081  0.24248977  0.81636722    -0.78150
C1772       C  0.70110552  0.24988108  0.68489335     0.97750
C1773       C  0.72487018  0.17354275  0.75326782     0.92630
O1774       O  0.73208332  0.19412013  0.77395395    -0.83470
O1775       O  0.98048658  0.19213124  0.74176765    -0.82930
C1776       C  0.88221239  0.26015942  0.79065752     0.96420
O1777       O  0.89453437  0.23757317  0.80554574    -0.72050
O1778       O  0.89273270  0.19486097  0.76293756    -0.75640
Al1779     Al  0.92482986  0.20876860  0.79002213     1.48980
C1780       C  0.89890011  0.17682481  0.74047043     0.91670
O1781       O  0.91822368  0.24081312  0.70041354    -0.81860
O1782       O  0.98508826  0.27265598  0.76063076    -0.75420
Al1783     Al  0.94911897  0.21740287  0.72229596     1.90120
O1784       O  0.93200808  0.28516926  0.72220114    -0.74490
O1785       O  0.94871372  0.27058100  0.81404255    -0.74340
O1786       O  0.89821016  0.27659819  0.77232298    -0.80000
O1787       O  0.95587544  0.22099299  0.81933937    -0.78200
O1788       O  0.93865868  0.23313374  0.75989663    -1.14340
O1789       O  0.95183408  0.17434932  0.78058873    -0.73530
C1790       C  0.97544889  0.17212589  0.76333194     0.97180
C1791       C  0.91629170  0.26990168  0.70119269     0.93580
Al1792     Al  0.94128185  0.27348582  0.76688909     1.55560
O1793       O  0.92097044  0.18296950  0.72225188    -0.78150
C1794       C  0.95535707  0.24736621  0.83168689     0.97750
C1795       C  0.99704980  0.26263256  0.73489164     0.92630
O1796       O  0.98061270  0.24757594  0.71457899    -0.83470
O1797       O  0.63250958  0.34134359  0.04742993    -0.82930
C1798       C  0.61129220  0.23735195  0.97617595     0.96420
O1799       O  0.59668274  0.25530326  0.99416715    -0.72050
O1800       O  0.59315371  0.29221587  0.04373068    -0.75640
Al1801     Al  0.60204354  0.29868518  0.99815019     1.48980
C1802       C  0.60971578  0.27897786  0.06558687     0.91670
O1803       O  0.69465062  0.27992220  0.04024107    -0.81860
O1804       O  0.70045254  0.30352730  0.98093889    -0.75420
Al1805     Al  0.66100970  0.30884196  0.03986093     1.90120
O1806       O  0.67805720  0.24718459  0.00414061    -0.74490
O1807       O  0.65269846  0.30581206  0.94325338    -0.74340
O1808       O  0.63407323  0.24731544  0.96091424    -0.80000
O1809       O  0.60296542  0.30382567  0.95063624    -0.78200
O1810       O  0.64243355  0.29519064  0.00390523    -1.14340
O1811       O  0.60417648  0.34287499  0.00282712    -0.73530
C1812       C  0.61572484  0.35634821  0.02768476     0.97180
C1813       C  0.69868794  0.25563178  0.02401459     0.93580
Al1814     Al  0.66456946  0.27727739  0.97440954     1.55560
O1815       O  0.63873296  0.28087509  0.06509596    -0.78150
C1816       C  0.62563773  0.30786286  0.93219425     0.97750
C1817       C  0.70375029  0.32931464  0.99515786     0.92630
O1818       O  0.68508073  0.33779253  0.01644656    -0.83470
O1819       O  0.68140893  0.08985900  0.98831490    -0.82930
C1820       C  0.61365913  0.48961401  0.03524457     0.96420
O1821       O  0.63549079  0.50209858  0.05183856    -0.72050
O1822       O  0.67730428  0.00201028  0.01088903    -0.75640
Al1823     Al  0.66423269  0.03352860  0.03747977     1.48980
C1824       C  0.69774953  0.00923787  0.99198775     0.91670
O1825       O  0.63319145  0.02742253  0.94682220    -0.81860
O1826       O  0.60048662  0.09224107  0.00569010    -0.75420
Al1827     Al  0.65644868  0.05838112  0.96906080     1.90120
O1828       O  0.58889311  0.04147898  0.96658392    -0.74490
O1829       O  0.60247408  0.05503063  0.05907171    -0.74340
O1830       O  0.59747401  0.00591877  0.01626646    -0.80000
O1831       O  0.65162612  0.06416905  0.06581198    -0.78200
O1832       O  0.64037435  0.04752834  0.00627713    -1.14340
O1833       O  0.69879642  0.06159488  0.02901218    -0.73530
C1834       C  0.70185905  0.08438013  0.00993156     0.97180
C1835       C  0.60404358  0.02668407  0.94582202     0.93580
Al1836     Al  0.60006247  0.04904323  0.01161017     1.55560
O1837       O  0.69202566  0.03031975  0.97141702    -0.78150
C1838       C  0.62547428  0.06188357  0.07750820     0.97750
C1839       C  0.60986873  0.10519517  0.98023388     0.92630
O1840       O  0.62595285  0.09021871  0.96031376    -0.83470
O1841       O  0.64078782  0.14539636  0.54960269    -0.82930
C1842       C  0.65641733  0.24468819  0.47308779     0.96420
O1843       O  0.67225989  0.22819906  0.49231443    -0.72050
O1844       O  0.68006396  0.19303311  0.54287244    -0.75640
Al1845     Al  0.66828289  0.18507438  0.49792869     1.48980
C1846       C  0.66530772  0.20831153  0.56357348     0.91670
O1847       O  0.57839469  0.20810600  0.53847258    -0.81860
O1848       O  0.56888496  0.17621857  0.48080979    -0.75420
Al1849     Al  0.61182211  0.17841692  0.54064870     1.90120
O1850       O  0.59125623  0.23540392  0.49689053    -0.74490
O1851       O  0.61608961  0.17079858  0.44426625    -0.74340
O1852       O  0.63441886  0.23243653  0.45654377    -0.80000
O1853       O  0.66557056  0.17816260  0.45078796    -0.78200
O1854       O  0.62799294  0.18836363  0.50332631    -1.14340
O1855       O  0.66630563  0.14161022  0.50454925    -0.73530
C1856       C  0.65593652  0.12927122  0.52991816     0.97180
C1857       C  0.57281950  0.22983029  0.51872582     0.93580
Al1858     Al  0.60440272  0.20255116  0.47171994     1.55560
O1859       O  0.63622270  0.20834679  0.56250267    -0.78150
C1860       C  0.64241555  0.17104267  0.43274339     0.97750
C1861       C  0.56538378  0.15359652  0.49993272     0.92630
O1862       O  0.58535187  0.14792769  0.52194735    -0.83470
O1863       O  0.58282687  0.39524609  0.49192535    -0.82930
C1864       C  0.65451911  0.99605524  0.53573881     0.96420
O1865       O  0.63242604  0.48478767  0.55130220    -0.72050
O1866       O  0.58771781  0.48462685  0.50946116    -0.75640
Al1867     Al  0.60264477  0.45396678  0.53737607     1.48980
C1868       C  0.56798264  0.47692409  0.48839086     0.91670
O1869       O  0.62889122  0.45474547  0.44671129    -0.81860
O1870       O  0.66453654  0.39137697  0.50702770    -0.75420
Al1871     Al  0.60696358  0.42532264  0.47040060     1.90120
O1872       O  0.67451210  0.44309771  0.46742150    -0.74490
O1873       O  0.66528169  0.42983498  0.56015725    -0.74340
O1874       O  0.66960232  0.47891688  0.51736606    -0.80000
O1875       O  0.61588588  0.42457751  0.56726383    -0.78200
O1876       O  0.62507397  0.43797978  0.50702220    -1.14340
O1877       O  0.56762168  0.42680497  0.52994594    -0.73530
C1878       C  0.56403700  0.40212237  0.51369203     0.97180
C1879       C  0.65780813  0.45753547  0.44662956     0.93580
Al1880     Al  0.66565173  0.43553036  0.51267206     1.55560
O1881       O  0.57289344  0.45370373  0.47073484    -0.78150
C1882       C  0.64291442  0.42455809  0.57862567     0.97750
C1883       C  0.65324235  0.37813762  0.48185878     0.92630
O1884       O  0.63622538  0.39327010  0.46229406    -0.83470
O1885       O  0.78598652  0.48048431  0.79318182    -0.82930
C1886       C  0.88629720  0.47034950  0.71953123     0.96420
O1887       O  0.87027004  0.45352451  0.73735880    -0.72050
O1888       O  0.83506258  0.44331189  0.78629477    -0.75640
Al1889     Al  0.82691548  0.45571548  0.74154820     1.48980
C1890       C  0.85022559  0.45836164  0.80786046     0.91670
O1891       O  0.84569713  0.04633887  0.78773637    -0.81860
O1892       O  0.81469730  0.05494906  0.72924031    -0.75420
Al1893     Al  0.81766081  0.01115994  0.78699225     1.90120
O1894       O  0.87385915  0.03408960  0.74732573    -0.74490
O1895       O  0.81168412  0.00857974  0.68978060    -0.74340
O1896       O  0.87345821  0.99244425  0.70406335    -0.80000
O1897       O  0.82031868  0.45918568  0.69418686    -0.78200
O1898       O  0.82852997  0.99602331  0.74917724    -1.14340
O1899       O  0.78333147  0.45583397  0.74659372    -0.73530
C1900       C  0.77049074  0.46519679  0.77200199     0.97180
C1901       C  0.86726876  0.05280534  0.76890228     0.93580
Al1902     Al  0.84232482  0.02076838  0.71955017     1.55560
O1903       O  0.84852469  0.48747647  0.80875897    -0.78150
C1904       C  0.81329206  0.48251981  0.67683743     0.97750
C1905       C  0.79181753  0.05745447  0.74754430     0.92630
O1906       O  0.78638944  0.03678651  0.76825044    -0.83470
O1907       O  0.54065120  0.04185714  0.73957969    -0.82930
C1908       C  0.63844097  0.46768041  0.78491868     0.96420
O1909       O  0.62819541  0.99033491  0.80063944    -0.72050
O1910       O  0.63020523  0.03338732  0.75825680    -0.75640
Al1911     Al  0.59905935  0.02111481  0.78592293     1.48980
C1912       C  0.62298379  0.05365773  0.73794583     0.91670
O1913       O  0.59821410  0.49186429  0.69558429    -0.81860
O1914       O  0.53324476  0.46128423  0.75468326    -0.75420
Al1915     Al  0.56964132  0.01599214  0.71854623     1.90120
O1916       O  0.58374307  0.44752239  0.71601485    -0.74490
O1917       O  0.57180631  0.46028299  0.80801416    -0.74340
O1918       O  0.62048184  0.45248612  0.76635316    -0.80000
O1919       O  0.56949351  0.01026237  0.81534972    -0.78200
O1920       O  0.58160632  0.49844684  0.75540406    -1.14340
O1921       O  0.57360550  0.05734598  0.77784246    -0.73530
C1922       C  0.54878290  0.06105412  0.76137880     0.97180
C1923       C  0.59891060  0.46264175  0.69546700     0.93580
Al1924     Al  0.57723575  0.45815536  0.76098141     1.55560
O1925       O  0.59941706  0.04939484  0.71981022    -0.78150
C1926       C  0.56742646  0.48340417  0.82628921     0.97750
C1927       C  0.52024385  0.47261209  0.72942550     0.92630
O1928       O  0.53616084  0.48764344  0.70963387    -0.83470
O1929       O  0.53893235  0.23740436  0.29948491    -0.82930
C1930       C  0.63630968  0.22016662  0.22387554     0.96420
O1931       O  0.62003670  0.20447874  0.24261291    -0.72050
O1932       O  0.58502978  0.19747854  0.29239645    -0.75640
Al1933     Al  0.57686212  0.20897478  0.24748904     1.48980
C1934       C  0.60178360  0.21212030  0.31297801     0.91670
O1935       O  0.60190847  0.29947839  0.29036159    -0.81860
O1936       O  0.56895400  0.30810053  0.23221930    -0.75420
Al1937     Al  0.57205330  0.26602886  0.29153561     1.90120
O1938       O  0.62766909  0.28542787  0.24902660    -0.74490
O1939       O  0.56209468  0.26050876  0.19491470    -0.74340
O1940       O  0.62392879  0.24206751  0.20767396    -0.80000
O1941       O  0.57018141  0.21119487  0.19996699    -0.78200
O1942       O  0.58079362  0.24935411  0.25383866    -1.14340
O1943       O  0.53326998  0.21194462  0.25350212    -0.73530
C1944       C  0.52178604  0.22304765  0.27906635     0.97180
C1945       C  0.62156489  0.30562052  0.26924303     0.93580
Al1946     Al  0.59453774  0.27240433  0.22285910     1.55560
O1947       O  0.60206166  0.24125395  0.31284797    -0.78150
C1948       C  0.56384780  0.23442108  0.18218973     0.97750
C1949       C  0.54763640  0.31297962  0.25196648     0.92630
O1950       O  0.54168153  0.29310535  0.27331248    -0.83470
O1951       O  0.78663191  0.29403016  0.24725234    -0.82930
C1952       C  0.88850071  0.22375068  0.28819001     0.96420
O1953       O  0.87715317  0.24507957  0.30522519    -0.72050
O1954       O  0.87622963  0.29066334  0.26612222    -0.75640
Al1955     Al  0.84590014  0.27485024  0.29253520     1.48980
C1956       C  0.86844962  0.31004237  0.24514083     0.91670
O1957       O  0.84597981  0.24948908  0.20053907    -0.81860
O1958       O  0.78345860  0.21269194  0.25873771    -0.75420
Al1959     Al  0.81660113  0.27092915  0.22494388     1.90120
O1960       O  0.83426536  0.20357439  0.21899979    -0.74490
O1961       O  0.82289314  0.21148986  0.31199692    -0.74340
O1962       O  0.87111021  0.20848496  0.26921817    -0.80000
O1963       O  0.81697723  0.26075139  0.32118411    -0.78200
O1964       O  0.82982788  0.25257426  0.26084461    -1.14340
O1965       O  0.81811087  0.30981510  0.28650643    -0.73530
C1966       C  0.79286405  0.31236348  0.27043976     0.97180
C1967       C  0.84850517  0.22046270  0.19912867     0.93580
Al1968     Al  0.82767481  0.21185656  0.26458274     1.55560
O1969       O  0.84463220  0.30554749  0.22741698    -0.78150
C1970       C  0.81732549  0.23356000  0.33130446     0.97750
C1971       C  0.76979065  0.22416562  0.23390171     0.92630
O1972       O  0.78466761  0.24124405  0.21503967    -0.83470
O1973       O  0.83707067  0.14705545  0.99178112    -0.82930
C1974       C  0.90657088  0.24791724  0.03921836     0.96420
O1975       O  0.88425889  0.23637824  0.05434186    -0.72050
O1976       O  0.84181682  0.23593666  0.01030167    -0.75640
Al1977     Al  0.85502569  0.20528169  0.03920355     1.48980
C1978       C  0.82174592  0.22781671  0.98979036     0.91670
O1979       O  0.88561896  0.20741221  0.95030699    -0.81860
O1980       O  0.91768109  0.14343673  0.01279690    -0.75420
Al1981     Al  0.86234213  0.17752370  0.97233124     1.90120
O1982       O  0.93010729  0.19394623  0.97279377    -0.74490
O1983       O  0.91667268  0.18295625  0.06511194    -0.74340
O1984       O  0.92254753  0.23086764  0.02159771    -0.80000
O1985       O  0.86721358  0.17574902  0.06970576    -0.78200
O1986       O  0.87870012  0.18966352  0.00999812    -1.14340
O1987       O  0.82022138  0.17759728  0.02999361    -0.73530
C1988       C  0.81705548  0.15361155  0.01246715     0.97180
C1989       C  0.91472556  0.20858803  0.95108940     0.93580
Al1990     Al  0.91903629  0.18745727  0.01765497     1.55560
O1991       O  0.82756148  0.20549254  0.97131925    -0.78150
C1992       C  0.89362491  0.17736596  0.08253578     0.97750
C1993       C  0.90756761  0.13037198  0.98706179     0.92630
O1994       O  0.89239219  0.14584773  0.96599089    -0.83470
O1995       O  0.87714934  0.39189661  0.03989851    -0.82930
C1996       C  0.89714954  0.99958826  0.97178161     0.96420
O1997       O  0.91693086  0.47860527  0.97717620    -0.72050
O1998       O  0.92679619  0.45415000  0.03335524    -0.75640
Al1999     Al  0.91353130  0.43703004  0.99269449     1.48980
C2000       C  0.91358840  0.45953163  0.05941651     0.91670
O2001       O  0.83277547  0.46583575  0.04443870    -0.81860
O2002       O  0.82232102  0.41982162  0.96628627    -0.75420
Al2003     Al  0.85660520  0.42979796  0.03799551     1.90120
O2004       O  0.81979278  0.47454245  0.99435129    -0.74490
O2005       O  0.86736423  0.44223188  0.93357047    -0.74340
O2006       O  0.86875299  0.49364210  0.96883781    -0.80000
O2007       O  0.90967652  0.41969744  0.94942662    -0.78200
O2008       O  0.87255834  0.44065470  0.99980456    -1.14340
O2009       O  0.91637748  0.39527631  0.00812854    -0.73530
C2010       C  0.90037048  0.37999438  0.02758378     0.97180
C2011       C  0.81624689  0.47912079  0.02357956     0.93580
Al2012     Al  0.84728510  0.45603684  0.96870932     1.55560
O2013       O  0.88664199  0.45023788  0.06361533    -0.78150
C2014       C  0.89049583  0.42689418  0.92733583     0.97750
C2015       C  0.81177849  0.40473770  0.98973840     0.92630
O2016       O  0.82262154  0.40799874  0.01830958    -0.83470
C2017       C  0.92316435  0.04408849  0.99837408    -0.10290
C2018       C  0.90661936  0.03216050  0.97147366     0.05900
C2019       C  0.89448199  0.05250065  0.94803526    -0.04060
C2020       C  0.89734115  0.08425784  0.95267112    -0.08510
C2021       C  0.91146413  0.09667424  0.98102154     0.05020
C2022       C  0.92552362  0.07604681  0.00353402    -0.04010
Br2023     Br  0.94647213  0.08918570  0.04275354    -0.03230
H2024       H  0.93235512  0.02847084  0.01671099     0.08930
H2025       H  0.88682169  0.09922818  0.93453605     0.06950
Br2026     Br  0.87257502  0.03801947  0.90987221    -0.03660
C2027       C  0.92588038  0.33017236  0.01406040    -0.10290
C2028       C  0.90751460  0.34710971  0.03507484     0.05900
C2029       C  0.89411372  0.33136914  0.06126610    -0.04060
C2030       C  0.89614756  0.29923729  0.06341103    -0.08510
C2031       C  0.91195192  0.28189819  0.04049178     0.05020
C2032       C  0.92857623  0.29801975  0.01672443    -0.03530
Br2033     Br  0.95432415  0.27829328  0.98589343    -0.03230
H2034       H  0.93717354  0.34178057  0.99444063     0.08930
H2035       H  0.88422770  0.28764371  0.08262800     0.06950
Br2036     Br  0.87241895  0.35164609  0.09521413    -0.03660
C2037       C  0.86136605  0.17543774  0.16411626    -0.10290
C2038       C  0.86725149  0.20616901  0.17343916     0.05900
C2039       C  0.89048979  0.22267470  0.15725856    -0.04060
C2040       C  0.90408605  0.20978313  0.13001520    -0.08510
C2041       C  0.89469947  0.18085318  0.11804552     0.05020
C2042       C  0.87493378  0.16280642  0.13675598    -0.03530
Br2043     Br  0.86331101  0.12192731  0.12342504    -0.03230
H2044       H  0.84470260  0.16174924  0.17685529     0.08930
H2045       H  0.91929557  0.22403132  0.11597174     0.06950
Br2046     Br  0.90406550  0.26338084  0.16976398    -0.03660
C2047       C  0.68702675  0.23203111  0.20000419    -0.10290
C2048       C  0.67036791  0.21503041  0.22251812     0.05900
C2049       C  0.68730450  0.19736267  0.24581102    -0.04060
C2050       C  0.71958325  0.19964013  0.24805515    -0.08510
C2051       C  0.73607636  0.21869755  0.22716092     0.05020
C2052       C  0.71924181  0.23392382  0.20183407    -0.03530
Br2053     Br  0.73748264  0.25933161  0.16936533    -0.03230
H2054       H  0.67482144  0.24517580  0.18140126     0.08930
H2055       H  0.73177119  0.18702466  0.26706564     0.06950
Br2056     Br  0.66857809  0.17031715  0.27635147    -0.03660
C2057       C  0.97002237  0.20045010  0.26487878    -0.10290
C2058       C  0.98807748  0.21992676  0.28499234     0.05900
C2059       C  0.97289698  0.23756520  0.30874806    -0.04060
C2060       C  0.94078691  0.23652822  0.31058382    -0.08510
C2061       C  0.92256378  0.21852278  0.28919478     0.05020
C2062       C  0.93779729  0.19946352  0.26673529    -0.03530
Br2063     Br  0.91677084  0.17227191  0.23666358    -0.03230
H2064       H  0.98095515  0.18636903  0.24682146     0.08930
H2065       H  0.92990954  0.25120115  0.32817039     0.06950
Br2066     Br  0.99324294  0.26564539  0.33845789    -0.03660
C2067       C  0.93725212  0.98509188  0.69776046    -0.10290
C2068       C  0.92048442  0.46593565  0.71826183     0.05900
C2069       C  0.93733491  0.44630420  0.73980385    -0.04060
C2070       C  0.96963394  0.44818451  0.74212034    -0.08510
C2071       C  0.98625520  0.46889926  0.72311467     0.05020
C2072       C  0.96948196  0.48687164  0.69989811    -0.03530
Br2073     Br  0.98786626  0.01627923  0.67139982    -0.03230
H2074       H  0.92512846  0.00006161  0.68071806     0.08930
H2075       H  0.98179743  0.43367049  0.75956450     0.06950
Br2076     Br  0.91849413  0.41677437  0.76773314    -0.03660
C2077       C  0.68473378  0.44692610  0.75832009    -0.10290
C2078       C  0.67208725  0.46104283  0.78560283     0.05900
C2079       C  0.69243382  0.47258872  0.81001742    -0.04060
C2080       C  0.72427265  0.47165910  0.80575349    -0.08510
C2081       C  0.73694934  0.45989301  0.77724293     0.05020
C2082       C  0.71662390  0.44641874  0.75377005    -0.03530
Br2083     Br  0.72985896  0.42868270  0.71384319    -0.03230
H2084       H  0.66962731  0.43793652  0.73918984     0.08930
H2085       H  0.73913267  0.48159767  0.82454186     0.06950
Br2086     Br  0.67872668  0.99088684  0.84948934    -0.03660
C2087       C  0.85708987  0.41522349  0.84739451    -0.10290
C2088       C  0.86873867  0.44213420  0.83334104     0.05900
C2089       C  0.89637965  0.45494727  0.84640971    -0.04060
C2090       C  0.90905245  0.44362329  0.87563193    -0.08510
C2091       C  0.89394245  0.42043090  0.89276663     0.05020
C2092       C  0.86956130  0.40433345  0.87690860    -0.03530
Br2093     Br  0.84821382  0.37190401  0.89860101    -0.03230
H2094       H  0.83639201  0.40450844  0.83726918     0.08930
H2095       H  0.92787158  0.45625388  0.88733348     0.06950
Br2096     Br  0.91657694  0.48935951  0.82669486    -0.03660
C2097       C  0.62420487  0.40622250  0.63058453    -0.10290
C2098       C  0.64567139  0.42454334  0.61436944     0.05900
C2099       C  0.65703734  0.45129603  0.63009150    -0.04060
C2100       C  0.64260592  0.46229533  0.65771457    -0.08510
C2101       C  0.61738285  0.44660405  0.67072535     0.05020
C2102       C  0.60977299  0.41706099  0.65830579    -0.03530
Br2103     Br  0.57695527  0.39225788  0.67458345    -0.03230
H2104       H  0.61537198  0.38540150  0.61901941     0.08930
H2105       H  0.65003902  0.98422309  0.66794603     0.06950
Br2106     Br  0.68869280  0.97644517  0.61213384    -0.03660
C2107       C  0.65815544  0.19587028  0.38269009    -0.10290
C2108       C  0.64353046  0.17073403  0.39711534     0.05900
C2109       C  0.62045739  0.15470655  0.37905967    -0.04060
C2110       C  0.60860687  0.16719450  0.35008224    -0.08510
C2111       C  0.61966834  0.19546558  0.33858488     0.05020
C2112       C  0.64634126  0.20846267  0.35373424    -0.03530
Br2113     Br  0.66685653  0.24422276  0.33711881    -0.03230
H2114       H  0.67625876  0.20822803  0.39590068     0.08930
H2115       H  0.58904448  0.15606749  0.33805441     0.06950
Br2116     Br  0.60142237  0.11809889  0.39549813    -0.03660
C2117       C  0.67711334  0.07830889  0.51346667    -0.10290
C2118       C  0.66045761  0.09554262  0.53585614     0.05900
C2119       C  0.64628976  0.07942968  0.56134554    -0.04060
C2120       C  0.64660265  0.04711236  0.56193468    -0.08510
C2121       C  0.66104553  0.02983748  0.53792201     0.05020
C2122       C  0.67776269  0.04600279  0.51433189    -0.03530
Br2123     Br  0.70066368  0.02632689  0.48107243    -0.03230
H2124       H  0.68886681  0.08994971  0.49417914     0.08930
H2125       H  0.63430422  0.03538401  0.58078776     0.06950
Br2126     Br  0.62477038  0.09907804  0.59572836    -0.03660
C2127       C  0.64570158  0.29600865  0.44790638    -0.10290
C2128       C  0.66170383  0.27880972  0.47169839     0.05900
C2129       C  0.67879607  0.29523317  0.49599902    -0.04060
C2130       C  0.67678056  0.32750856  0.49786653    -0.08510
C2131       C  0.65871516  0.34453963  0.47556282     0.05020
C2132       C  0.64436542  0.32831133  0.44922274    -0.03530
Br2133     Br  0.62152606  0.34766509  0.41420256    -0.03230
H2134       H  0.63313362  0.28418062  0.42852020     0.08930
H2135       H  0.68878833  0.33926036  0.51767137     0.06950
Br2136     Br  0.70453333  0.27588767  0.52862604    -0.03660
C2137       C  0.54866091  0.00428496  0.87697231    -0.10290
C2138       C  0.56588582  0.48122371  0.86177571     0.05900
C2139       C  0.59110671  0.96818006  0.87901454    -0.04060
C2140       C  0.60230698  0.98244328  0.90741173    -0.08510
C2141       C  0.58795979  0.00890490  0.91972825     0.05020
C2142       C  0.55963703  0.01851561  0.90545677    -0.03530
Br2143     Br  0.53744447  0.05402215  0.92003949    -0.03230
H2144       H  0.52907059  0.51445141  0.86408984     0.08930
H2145       H  0.62325893  0.97374228  0.91900084     0.06950
Br2146     Br  0.61399225  0.93408235  0.86232001    -0.03660
C2147       C  0.74427219  0.11233955  0.04066575    -0.10290
C2148       C  0.73083503  0.10291423  0.01089879     0.05900
C2149       C  0.74651079  0.10977638  0.98221540    -0.04060
C2150       C  0.77492298  0.12507137  0.98378960    -0.08510
C2151       C  0.78811533  0.13510790  0.01334691     0.05020
C2152       C  0.77220267  0.12898311  0.04202694    -0.03530
Br2153     Br  0.78778397  0.14201161  0.08370580    -0.03230
H2154       H  0.73275821  0.10714716  0.06293057     0.08930
H2155       H  0.78650649  0.12981122  0.96144886     0.06950
Br2156     Br  0.73149907  0.09772343  0.93986144    -0.03660
C2157       C  0.76480528  0.47608872  0.04051906    -0.10290
C2158       C  0.78853283  0.49562266  0.03120815     0.05900
C2159       C  0.78155213  0.02126033  0.01161487    -0.04060
C2160       C  0.75272426  0.02333506  0.99616948    -0.08510
C2161       C  0.72961513  0.00154513  0.00221338     0.05020
C2162       C  0.73570973  0.47822948  0.02566311    -0.03530
Br2163     Br  0.70637470  0.44727893  0.03770937    -0.03230
H2164       H  0.77005926  0.45615513  0.05555129     0.08930
H2165       H  0.74827292  0.04242736  0.97990936     0.06950
Br2166     Br  0.81299145  0.05037804  0.00081069    -0.03660
C2167       C  0.59256740  0.40688617  0.01132848    -0.10290
C2168       C  0.61083235  0.38999277  0.03352079     0.05900
C2169       C  0.62582825  0.40630666  0.05941265    -0.04060
C2170       C  0.62469360  0.43856305  0.06046854    -0.08510
C2171       C  0.60846323  0.45559329  0.03676690     0.05020
C2172       C  0.59085941  0.43914658  0.01289388    -0.03530
Br2173     Br  0.56467074  0.45835721  0.98056794    -0.03230
H2174       H  0.58011553  0.39502179  0.99189455     0.08930
H2175       H  0.63760808  0.45047986  0.07954883     0.06950
Br2176     Br  0.64935346  0.38722491  0.09413080    -0.03660
C2177       C  0.61246621  0.18707868  0.94692361    -0.10290
C2178       C  0.60346777  0.20401053  0.97409940     0.05900
C2179       C  0.59144841  0.18774207  0.00053683    -0.04060
C2180       C  0.59179715  0.15555493  0.00079389    -0.08510
C2181       C  0.60357807  0.13857919  0.97499952     0.05020
C2182       C  0.61211627  0.15472421  0.94686286    -0.03530
Br2183     Br  0.62367074  0.13462913  0.90755395    -0.03230
H2184       H  0.62084332  0.19907298  0.92592197     0.08930
H2185       H  0.58428950  0.14384283  0.02233918     0.06950
Br2186     Br  0.57685677  0.20706230  0.03879272    -0.03660
C2187       C  0.59711876  0.22461058  0.13677616    -0.10290
C2188       C  0.56813340  0.23425370  0.14690826     0.05900
C2189       C  0.55104064  0.25482906  0.12705341    -0.04060
C2190       C  0.56440535  0.26814914  0.09992206    -0.08510
C2191       C  0.59509888  0.26168742  0.09228163     0.05020
C2192       C  0.61102812  0.23852358  0.11034668    -0.03530
Br2193     Br  0.65222076  0.22516803  0.10157410    -0.03230
H2194       H  0.61068632  0.20890874  0.15178190     0.08930
H2195       H  0.55128119  0.28495723  0.08589988     0.06950
Br2196     Br  0.51045277  0.26773223  0.13826523    -0.03660
C2197       C  0.78460539  0.25468544  0.02351968    -0.10290
C2198       C  0.78968598  0.23710894  0.99545127     0.05900
C2199       C  0.76436629  0.22244871  0.97976630    -0.04060
C2200       C  0.73517492  0.22533847  0.99249563    -0.08510
C2201       C  0.73007906  0.24368577  0.02001616     0.05020
C2202       C  0.75552824  0.25741634  0.03630399    -0.03530
Br2203     Br  0.75281395  0.28053137  0.07590920    -0.03230
H2204       H  0.80365300  0.26559338  0.03667065     0.08930
H2205       H  0.71598933  0.21474244  0.97927925     0.06950
Br2206     Br  0.76715451  0.19921210  0.94027086    -0.03660
C2207       C  0.76038466  0.33466235  0.99280972    -0.10290
C2208       C  0.73118537  0.34818076  0.98873359     0.05900
C2209       C  0.72899698  0.37949027  0.97999682    -0.04060
C2210       C  0.75588446  0.39736482  0.97808027    -0.08510
C2211       C  0.78499895  0.38424724  0.98471731     0.05020
C2212       C  0.78718439  0.35247722  0.99125516    -0.03530
Br2213     Br  0.82625264  0.33270305  0.99885755    -0.03230
H2214       H  0.76229923  0.31039186  0.99852233     0.08930
H2215       H  0.75397567  0.42181169  0.97280521     0.06950
Br2216     Br  0.68985610  0.39808387  0.96947919    -0.03660
C2217       C  0.92942078  0.26288402  0.88108490    -0.10290
C2218       C  0.95487938  0.24848214  0.86737513     0.05900
C2219       C  0.97103139  0.22586926  0.88565101    -0.04060
C2220       C  0.95886328  0.21464183  0.91435609    -0.08510
C2221       C  0.93063211  0.22567416  0.92531617     0.05020
C2222       C  0.91710903  0.25161193  0.90973270    -0.03530
Br2223     Br  0.88124648  0.27200405  0.92566488    -0.03230
H2224       H  0.91681135  0.28048087  0.86761647     0.08930
H2225       H  0.97028411  0.19557455  0.92665953     0.06950
Br2226     Br  0.00760511  0.20673606  0.87000592    -0.03660
C2227       C  0.54393405  0.11778140  0.75725434    -0.10290
C2228       C  0.53078331  0.08952987  0.76572726     0.05900
C2229       C  0.00086320  0.08914957  0.77769789    -0.04060
C2230       C  0.98345548  0.11648290  0.77789033    -0.08510
C2231       C  0.99582706  0.14461827  0.76687807     0.05020
C2232       C  0.52702330  0.14521165  0.75804375    -0.03530
Br2233     Br  0.54859261  0.18269090  0.74873534    -0.03230
H2234       H  0.56755628  0.11845454  0.74957686     0.08930
H2235       H  0.95996990  0.11554597  0.78609102     0.06950
Br2236     Br  0.98417063  0.05213278  0.79577151    -0.03660
C2237       C  0.85757253  0.10853349  0.77311303    -0.10290
C2238       C  0.87791065  0.08476047  0.76493501     0.05900
C2239       C  0.90267994  0.09157428  0.74457985    -0.04060
C2240       C  0.90686356  0.12149198  0.73352838    -0.08510
C2241       C  0.88692564  0.14527757  0.74225656     0.05020
C2242       C  0.86140418  0.13837320  0.76131413    -0.03530
Br2243     Br  0.83062650  0.16858666  0.77118307    -0.03230
H2244       H  0.83752787  0.10360206  0.78721019     0.08930
H2245       H  0.92698858  0.12640469  0.71947137     0.06950
Br2246     Br  0.93173868  0.06146062  0.73016406    -0.03660
C2247       C  0.71972255  0.22933637  0.63370956    -0.10290
C2248       C  0.70196946  0.25176832  0.64930647     0.05900
C2249       C  0.67668962  0.26483674  0.63216557    -0.04060
C2250       C  0.66651923  0.25162130  0.60287757    -0.08510
C2251       C  0.68141519  0.22577246  0.58990175     0.05020
C2252       C  0.70954475  0.21599292  0.60442324    -0.03530
Br2253     Br  0.73253066  0.18143863  0.58881994    -0.03230
H2254       H  0.73931243  0.21912258  0.64654106     0.08930
H2255       H  0.64557699  0.26034386  0.59128054     0.06950
Br2256     Br  0.65176929  0.29687292  0.65001842    -0.03660
C2257       C  0.54833905  0.28595488  0.74998411    -0.10290
C2258       C  0.53056160  0.26736135  0.72871573     0.05900
C2259       C  0.54598225  0.25166978  0.70364773    -0.04060
C2260       C  0.57816762  0.25257635  0.70248607    -0.08510
C2261       C  0.59611905  0.26907441  0.72540321     0.05020
C2262       C  0.58058192  0.28729206  0.74837374    -0.03530
Br2263     Br  0.60123494  0.31368445  0.77943411    -0.03230
H2264       H  0.53719901  0.29890987  0.76879080     0.08930
H2265       H  0.58931767  0.23899662  0.68415690     0.06950
Br2266     Br  0.52584081  0.22623369  0.67120268    -0.03660
C2267       C  0.83392327  0.28297659  0.76722121    -0.10290
C2268       C  0.84841361  0.26581277  0.79224645     0.05900
C2269       C  0.82965763  0.25146281  0.81523708    -0.04060
C2270       C  0.79753019  0.25301457  0.81169301    -0.08510
C2271       C  0.78296258  0.26837905  0.78539571     0.05020
C2272       C  0.80175339  0.28430581  0.76348013    -0.03530
Br2273     Br  0.78581940  0.30738053  0.72701004    -0.03230
H2274       H  0.84768967  0.29425793  0.74923249     0.08930
H2275       H  0.78389222  0.24089350  0.82918364     0.06950
Br2276     Br  0.84581641  0.22863746  0.85177740    -0.03660
C2277       C  0.64474223  0.32742938  0.88104101    -0.10290
C2278       C  0.62285386  0.30903156  0.89655721     0.05900
C2279       C  0.61162051  0.28255057  0.88030094    -0.04060
C2280       C  0.62659745  0.27166145  0.85299437    -0.08510
C2281       C  0.65211456  0.28739028  0.84069312     0.05020
C2282       C  0.65969999  0.31674066  0.85357547    -0.03530
Br2283     Br  0.69324683  0.34120369  0.83838154    -0.03230
H2284       H  0.65357481  0.34799160  0.89311983     0.08930
H2285       H  0.61926932  0.24986285  0.84237440     0.06950
Br2286     Br  0.57958202  0.25745407  0.89752630    -0.03660
C2287       C  0.74526887  0.12866813  0.72178013    -0.10290
C2288       C  0.74326102  0.14451068  0.75146935     0.05900
C2289       C  0.75685697  0.13079523  0.77950430    -0.04060
C2290       C  0.77124223  0.10198451  0.77748582    -0.08510
C2291       C  0.77377245  0.08654554  0.74785762     0.05020
C2292       C  0.76090676  0.10028632  0.71970580    -0.03530
Br2293     Br  0.76286929  0.08043653  0.67832132    -0.03230
H2294       H  0.73478329  0.13848824  0.70003165     0.08930
H2295       H  0.78135866  0.09187745  0.79928892     0.06950
Br2296     Br  0.75637978  0.14932220  0.82177428    -0.03660
C2297       C  0.65202787  0.09068691  0.77243648    -0.10290
C2298       C  0.63551140  0.08504369  0.74310282     0.05900
C2299       C  0.62412491  0.11036195  0.72519778    -0.04060
C2300       C  0.62716363  0.13995954  0.73793740    -0.08510
C2301       C  0.64257313  0.14558832  0.76789832     0.05020
C2302       C  0.65507448  0.12036666  0.78520197    -0.03530
Br2303     Br  0.67477664  0.12411463  0.82722477    -0.03230
H2304       H  0.66084935  0.07166862  0.78695294     0.08930
H2305       H  0.61800359  0.15885699  0.72348523     0.06950
Br2306     Br  0.60343187  0.10666415  0.68362372    -0.03660
C2307       C  0.79670115  0.00562754  0.62483747    -0.10290
C2308       C  0.81377824  0.48238911  0.64103729     0.05900
C2309       C  0.83947330  0.46987801  0.62560156    -0.04060
C2310       C  0.85064054  0.98423275  0.59799352    -0.08510
C2311       C  0.83625929  0.01061464  0.58473960     0.05020
C2312       C  0.80778561  0.01999740  0.59710611    -0.03530
Br2313     Br  0.78523453  0.05498345  0.58062035    -0.03230
H2314       H  0.77671911  0.01540259  0.63618137     0.08930
H2315       H  0.87175530  0.97568679  0.58785922     0.06950
Br2316     Br  0.86328052  0.43650009  0.64365820    -0.03660
C2317       C  0.98838662  0.11998710  0.52295181    -0.10290
C2318       C  0.98171166  0.09904265  0.49770845     0.05900
C2319       C  0.50316937  0.09646182  0.47248749    -0.04060
C2320       C  0.52993109  0.11496011  0.47295708    -0.08510
C2321       C  0.53648992  0.13529709  0.49868884     0.05020
C2322       C  0.51544632  0.13744456  0.52388452    -0.03530
Br2323     Br  0.52233627  0.16361868  0.56072271    -0.03230
H2324       H  0.97284980  0.12230913  0.54285672     0.08930
H2325       H  0.54609871  0.11284681  0.45358776     0.06950
Br2326     Br  0.49806922  0.06819058  0.43688851    -0.03660
C2327       C  0.50075494  0.01526865  0.52573867    -0.10290
C2328       C  0.97687092  0.99496596  0.51618820     0.05900
C2329       C  0.98299084  0.47153089  0.49334391    -0.04060
C2330       C  0.51243431  0.46850530  0.48145329    -0.08510
C2331       C  0.53639960  0.48828416  0.49168347     0.05020
C2332       C  0.52997469  0.01272910  0.51303866    -0.03530
Br2333     Br  0.55968449  0.04401309  0.52516487    -0.03230
H2334       H  0.49631294  0.03458035  0.54163302     0.08930
H2335       H  0.51687445  0.44934378  0.46535552     0.06950
Br2336     Br  0.95264420  0.44284169  0.47642425    -0.03660
C2337       C  0.85877290  0.28448254  0.63173006    -0.10290
C2338       C  0.87122077  0.31146492  0.61862499     0.05900
C2339       C  0.89296416  0.32835895  0.63757727    -0.04060
C2340       C  0.90572907  0.31561225  0.66602200    -0.08510
C2341       C  0.89704994  0.28603362  0.67615151     0.05020
C2342       C  0.87156853  0.27156341  0.66016445    -0.03530
Br2343     Br  0.85414076  0.23341565  0.67482709    -0.03230
H2344       H  0.84182440  0.27125939  0.61777330     0.08930
H2345       H  0.92433272  0.32777160  0.67861946     0.06950
Br2346     Br  0.90949574  0.36670046  0.62276290    -0.03660
C2347       C  0.83746871  0.40848082  0.49757287    -0.10290
C2348       C  0.85561064  0.39041023  0.47729179     0.05900
C2349       C  0.87044291  0.40547530  0.45140038    -0.04060
C2350       C  0.86944362  0.43765844  0.44869707    -0.08510
C2351       C  0.85353630  0.45595078  0.47068283     0.05020
C2352       C  0.83585653  0.44071675  0.49423491    -0.03530
Br2353     Br  0.80963476  0.46181933  0.52358230    -0.03230
H2354       H  0.82501739  0.39760015  0.51684383     0.08930
H2355       H  0.88242591  0.44856668  0.42982639     0.06950
Br2356     Br  0.89390296  0.38484181  0.41900429    -0.03660
C2357       C  0.87584065  0.18843434  0.56062950    -0.10290
C2358       C  0.85647829  0.20608524  0.54015413     0.05900
C2359       C  0.83732014  0.19021413  0.51716068    -0.04060
C2360       C  0.83960244  0.15802920  0.51380518    -0.08510
C2361       C  0.86040666  0.14066343  0.53300493     0.05020
C2362       C  0.87814726  0.15639252  0.55733907    -0.03530
Br2363     Br  0.90815931  0.13705090  0.58584659    -0.03230
H2364       H  0.89065204  0.19979033  0.57855417     0.08930
H2365       H  0.82536415  0.14658796  0.49544552     0.06950
Br2366     Br  0.80811442  0.21034481  0.48847084    -0.03660
C2367       C  0.85470799  0.23422353  0.41150030    -0.10290
C2368       C  0.83820206  0.25875114  0.42512093     0.05900
C2369       C  0.80853662  0.26554218  0.41206344    -0.04060
C2370       C  0.79825184  0.25101942  0.38340020    -0.08510
C2371       C  0.81726894  0.23036611  0.36686339     0.05020
C2372       C  0.84431492  0.21979314  0.38287186    -0.03530
Br2373     Br  0.87074360  0.18966002  0.36399936    -0.03230
H2374       H  0.87682247  0.22745166  0.42205354     0.08930
H2375       H  0.77724524  0.25927865  0.37152916     0.06950
Br2376     Br  0.78271053  0.29740335  0.42887442    -0.03660
C2377       C  0.98974931  0.24556762  0.53366048    -0.10290
C2378       C  0.97805963  0.24850273  0.50159166     0.05900
C2379       C  0.49856542  0.24908449  0.47602330    -0.04060
C2380       C  0.52994167  0.24588778  0.48268952    -0.08510
C2381       C  0.54150300  0.24200688  0.51465550     0.05020
C2382       C  0.52125489  0.24309747  0.54031051    -0.03530
Br2383     Br  0.53580422  0.24367069  0.58455511    -0.03230
H2384       H  0.97454839  0.24687211  0.55392880     0.08930
H2385       H  0.54515666  0.24497394  0.46240392     0.06950
Br2386     Br  0.98505042  0.25310180  0.43159067    -0.03660
C2387       C  0.50663300  0.33544372  0.51123775    -0.10290
C2388       C  0.97980243  0.35025427  0.52117544     0.05900
C2389       C  0.98150685  0.38093455  0.53194636    -0.04060
C2390       C  0.50949126  0.39703647  0.53057617    -0.08510
C2391       C  0.53614434  0.38288230  0.51858703     0.05020
C2392       C  0.53467741  0.35131114  0.50995251    -0.03530
Br2393     Br  0.57004344  0.32808134  0.49727707    -0.03230
H2394       H  0.50561788  0.31148674  0.50374669     0.08930
H2395       H  0.51011670  0.42100617  0.53811063     0.06950
Br2396     Br  0.94638517  0.40109273  0.54952021    -0.03660
C2397       C  0.66793701  0.51370338  0.37673914    -0.10290
C2398       C  0.69713417  0.50505643  0.36636680     0.05900
C2399       C  0.71567070  0.48649079  0.38690675    -0.04060
C2400       C  0.70306674  0.47228173  0.41391418    -0.08510
C2401       C  0.67203124  0.47692316  0.42135251     0.05020
C2402       C  0.65515702  0.49980637  0.40383625    -0.03530
Br2403     Br  0.61419237  0.51259916  0.41428483    -0.03230
H2404       H  0.65343315  0.52835194  0.36148388     0.08930
H2405       H  0.71715089  0.45631234  0.42801723     0.06950
Br2406     Br  0.75757742  0.97801347  0.37705020    -0.03660
C2407       C  0.64661454  0.07724314  0.13106069    -0.10290
C2408       C  0.62512233  0.05922582  0.11310668     0.05900
C2409       C  0.61611276  0.03074315  0.12608537    -0.04060
C2410       C  0.63302677  0.01807146  0.15198987    -0.08510
C2411       C  0.65619013  0.03491626  0.16880591     0.05020
C2412       C  0.66178934  0.06563257  0.15895259    -0.03530
Br2413     Br  0.69262465  0.09154759  0.17930648    -0.03230
H2414       H  0.65406264  0.09917780  0.12136859     0.08930
H2415       H  0.62810082  0.49446715  0.15862896     0.06950
Br2416     Br  0.58303891  0.50642215  0.10758298    -0.03660
C2417       C  0.72209543  0.36360213  0.26717232    -0.10290
C2418       C  0.73490381  0.39213667  0.27624514     0.05900
C2419       C  0.76464632  0.39290236  0.29031760    -0.04060
C2420       C  0.78316727  0.36633882  0.28995667    -0.08510
C2421       C  0.77157309  0.33838654  0.27700020     0.05020
C2422       C  0.73991881  0.33664729  0.26839081    -0.03530
Br2423     Br  0.71965098  0.29776781  0.26088836    -0.03230
H2424       H  0.69832023  0.36237905  0.25877986     0.08930
H2425       H  0.80677322  0.36777488  0.29908631     0.06950
Br2426     Br  0.77901940  0.42930540  0.31234239    -0.03660
C2427       C  0.64252500  0.37725431  0.22227511    -0.10290
C2428       C  0.62949322  0.40027966  0.24124178     0.05900
C2429       C  0.61207360  0.39156586  0.26809359    -0.04060
C2430       C  0.61255115  0.36103774  0.27843474    -0.08510
C2431       C  0.62810770  0.33815987  0.26122013     0.05020
C2432       C  0.64234732  0.34657232  0.23192275    -0.03530
Br2433     Br  0.66327960  0.31888898  0.20338587    -0.03230
H2434       H  0.65536445  0.38342619  0.20111279     0.08930
H2435       H  0.59968601  0.35508909  0.29959152     0.06950
Br2436     Br  0.58734184  0.41988400  0.29216021    -0.03660
C2437       C  0.96851805  0.48431763  0.12754832    -0.10290
C2438       C  0.94953036  0.50469208  0.14463071     0.05900
C2439       C  0.92185612  0.51483514  0.12935101    -0.04060
C2440       C  0.91166994  0.50116568  0.10026936    -0.08510
C2441       C  0.92883435  0.47789290  0.08548868     0.05020
C2442       C  0.95840004  0.47088581  0.09820268    -0.03530
Br2443     Br  0.98368571  0.43976644  0.07933174    -0.03230
H2444       H  0.98980331  0.97612088  0.13887306     0.08930
H2445       H  0.88922121  0.50741640  0.09013295     0.06950
Br2446     Br  0.89434209  0.54335483  0.14916454    -0.03660
C2447       C  0.83349352  0.03423702  0.24283009    -0.10290
C2448       C  0.84757560  0.01128976  0.22401838     0.05900
C2449       C  0.82843730  0.48906286  0.20832787    -0.04060
C2450       C  0.79672065  0.48932307  0.21311944    -0.08510
C2451       C  0.78280499  0.01146571  0.23295358     0.05020
C2452       C  0.80158182  0.03461160  0.24727488    -0.03530
Br2453     Br  0.78537972  0.06779562  0.27245577    -0.03230
H2454       H  0.84744858  0.05180036  0.25488453     0.08930
H2455       H  0.78289787  0.47132266  0.20163253     0.06950
Br2456     Br  0.84320156  0.45665782  0.18084907    -0.03660
C2457       C  0.54947339  0.02196234  0.25011073    -0.10290
C2458       C  0.53304076  0.03057004  0.27714108     0.05900
C2459       C  0.54918245  0.03727701  0.30649404    -0.04060
C2460       C  0.58145376  0.03435804  0.30839071    -0.08510
C2461       C  0.59759636  0.02421886  0.28144562     0.05020
C2462       C  0.58110942  0.51769620  0.25242273    -0.03530
Br2463     Br  0.59896627  0.49669741  0.21722323    -0.03230
H2464       H  0.53726177  0.51527096  0.22791178     0.08930
H2465       H  0.59376962  0.03904599  0.33105082     0.06950
Br2466     Br  0.52812290  0.05009297  0.34436353    -0.03660
C2467       C  0.91306450  0.06823743  0.35009558    -0.10290
C2468       C  0.90372283  0.03967614  0.33712158     0.05900
C2469       C  0.87778482  0.02484499  0.35003311    -0.04060
C2470       C  0.86452728  0.03646280  0.37810179    -0.08510
C2471       C  0.87717137  0.06238197  0.39401247     0.05020
C2472       C  0.90004257  0.07959719  0.37833339    -0.03530
Br2473     Br  0.91777920  0.11607357  0.39771442    -0.03230
H2474       H  0.93231055  0.08046798  0.33993838     0.08930
H2475       H  0.84698158  0.02289112  0.38968275     0.06950
Br2476     Br  0.86044932  0.98786274  0.33132416    -0.03660
C2477       C  0.02510784  0.35811150  0.22185573    -0.10290
C2478       C  0.53157092  0.34330460  0.25154293     0.05900
C2479       C  0.52507202  0.35919762  0.28050565    -0.04060
C2480       C  0.51187311  0.38864829  0.27927741    -0.08510
C2481       C  0.00436097  0.40291535  0.24968985     0.05020
C2482       C  0.01118653  0.38738681  0.22072300    -0.03530
Br2483     Br  0.00266477  0.40549781  0.17908060    -0.03230
H2484       H  0.03056948  0.34669409  0.19939262     0.08930
H2485       H  0.50643237  0.40007236  0.30175350     0.06950
Br2486     Br  0.53482730  0.34307107  0.32281207    -0.03660
C2487       C  0.92066507  0.37427818  0.27282281    -0.10290
C2488       C  0.89929952  0.39853463  0.27393653     0.05900
C2489       C  0.86883001  0.39357160  0.26282279    -0.04060
C2490       C  0.86019537  0.36517292  0.25002684    -0.08510
C2491       C  0.88141780  0.34094081  0.24866656     0.05020
C2492       C  0.91198072  0.34559356  0.26004285    -0.03530
Br2493     Br  0.94286979  0.31409615  0.25677862    -0.03230
H2494       H  0.94461872  0.37825668  0.27966534     0.08930
H2495       H  0.83633279  0.36167988  0.24242553     0.06950
Br2496     Br  0.83865506  0.42568028  0.26292915    -0.03660
O2497       O  0.98751949  0.00885605  0.29676729    -0.82930
C2498       C  0.88188560  0.50927337  0.22466037     0.96420
O2499       O  0.89740338  0.52761384  0.24239754    -0.72050
O2500       O  0.93494416  0.54109194  0.29046124    -0.75640
Al2501     Al  0.94086995  0.52950004  0.24570449     1.48980
C2502       C  0.92254213  0.52484369  0.31208536     0.91670
O2503       O  0.93417098  0.93779805  0.29197651    -0.81860
O2504       O  0.96094405  0.93217879  0.23249173    -0.75420
Al2505     Al  0.95868246  0.97521062  0.29074365     1.90120
O2506       O  0.90225663  0.94681735  0.25150889    -0.74490
O2507       O  0.95729968  0.97842275  0.19309802    -0.74340
O2508       O  0.89561782  0.98853673  0.20892507    -0.80000
O2509       O  0.94428401  0.52671678  0.19819567    -0.78200
O2510       O  0.94365240  0.98922888  0.25317125    -1.14340
O2511       O  0.98429053  0.53331084  0.24988863    -0.73530
C2512       C  0.99964831  0.52515320  0.27504816     0.97180
C2513       C  0.91126469  0.92993915  0.27430699     0.93580
Al2514     Al  0.93016235  0.96337291  0.22354269     1.55560
O2515       O  0.92723862  0.99604779  0.31320935    -0.78150
C2516       C  0.95226324  0.50424089  0.18045819     0.97750
C2517       C  0.98518697  0.93120035  0.25026163     0.92630
O2518       O  0.99079554  0.95220033  0.27106787    -0.83470
O2519       O  0.72628655  0.93908345  0.24800789    -0.82930
C2520       C  0.63080884  0.51744184  0.28374231     0.96420
O2521       O  0.64049834  0.99565842  0.30172650    -0.72050
O2522       O  0.63776029  0.95013639  0.26162812    -0.75640
Al2523     Al  0.66917769  0.96339647  0.29001087     1.48980
C2524       C  0.64390186  0.93092235  0.24018080     0.91670
O2525       O  0.67268674  0.99025942  0.19764113    -0.81860
O2526       O  0.73601441  0.52102729  0.26185911    -0.75420
Al2527     Al  0.69902867  0.96579762  0.22414933     1.90120
O2528       O  0.68741343  0.53476826  0.21812010    -0.74490
O2529       O  0.69565127  0.52463353  0.31179851    -0.74340
O2530       O  0.64885619  0.53126997  0.26524234    -0.80000
O2531       O  0.69968313  0.97505219  0.32043082    -0.78200
O2532       O  0.68691387  0.98466697  0.25944692    -1.14340
O2533       O  0.69307096  0.92604093  0.28480432    -0.73530
C2534       C  0.71746748  0.92078163  0.26973988     0.97180
C2535       C  0.67319046  0.51939084  0.19615265     0.93580
Al2536     Al  0.69202391  0.52510571  0.26406975     1.55560
O2537       O  0.66760844  0.93465190  0.22350989    -0.78150
C2538       C  0.70002710  0.50211627  0.33110530     0.97750
C2539       C  0.74907873  0.50862417  0.23797959     0.92630
O2540       O  0.73357333  0.99231656  0.21790060    -0.83470
O2541       O  0.93085318  0.83976704  0.49671976    -0.82930
C2542       C  0.86078138  0.74035983  0.54017005     0.96420
O2543       O  0.88231036  0.75242653  0.55744001    -0.72050
O2544       O  0.92717289  0.75116872  0.51815554    -0.75640
Al2545     Al  0.91211828  0.78291423  0.54401124     1.48980
C2546       C  0.94603727  0.75855639  0.49717688     0.91670
O2547       O  0.88273590  0.77859361  0.45254799    -0.81860
O2548       O  0.84993036  0.84471830  0.51037291    -0.75420
Al2549     Al  0.90582961  0.80892637  0.47577852     1.90120
O2550       O  0.83808429  0.79274164  0.47127323    -0.74490
O2551       O  0.84996805  0.80651145  0.56409261    -0.74340
O2552       O  0.84484492  0.75720187  0.52137367    -0.80000
O2553       O  0.89929802  0.81364605  0.57207406    -0.78200
O2554       O  0.88894133  0.79769279  0.51226330    -1.14340
O2555       O  0.94702279  0.80966624  0.53665868    -0.73530
C2556       C  0.95053794  0.83310281  0.51882529     0.97180
C2557       C  0.85360162  0.77751922  0.45110119     0.93580
Al2558     Al  0.84847193  0.80054855  0.51662187     1.55560
O2559       O  0.93998042  0.78065538  0.47815725    -0.78150
C2560       C  0.87276832  0.81278523  0.58300006     0.97750
C2561       C  0.86052502  0.85694232  0.48493958     0.92630
O2562       O  0.87631860  0.84079277  0.46603201    -0.83470
O2563       O  0.87850072  0.59033266  0.54684790    -0.82930
C2564       C  0.86006702  0.98987047  0.47148941     0.96420
O2565       O  0.84450646  0.50778202  0.48859941    -0.72050
O2566       O  0.83842294  0.54387864  0.53818702    -0.75640
Al2567     Al  0.85040938  0.55098687  0.49368293     1.48980
C2568       C  0.85285759  0.52839988  0.55993824     0.91670
O2569       O  0.94031504  0.52735722  0.54085357    -0.81860
O2570       O  0.94968361  0.55547950  0.48292879    -0.75420
Al2571     Al  0.90691181  0.55710479  0.53987196     1.90120
O2572       O  0.92482755  0.49808552  0.50138389    -0.74490
O2573       O  0.90397862  0.55990023  0.44273918    -0.74340
O2574       O  0.88304409  0.00042317  0.45669588    -0.80000
O2575       O  0.85395787  0.55684758  0.44637335    -0.78200
O2576       O  0.89040030  0.54632577  0.50186950    -1.14340
O2577       O  0.85388904  0.59496774  0.49993447    -0.73530
C2578       C  0.86431019  0.60699699  0.52618155     0.97180
C2579       C  0.94511187  0.50492942  0.52205279     0.93580
Al2580     Al  0.91370403  0.52964352  0.47286185     1.55560
O2581       O  0.88200892  0.52813329  0.56106938    -0.78150
C2582       C  0.87772149  0.56164641  0.42970162     0.97750
C2583       C  0.95327237  0.57966381  0.50003645     0.92630
O2584       O  0.93345370  0.58653621  0.52082424    -0.83470
O2585       O  0.73411457  0.74956261  0.80139246    -0.82930
C2586       C  0.63005801  0.76306791  0.72735110     0.96420
O2587       O  0.64760585  0.77926131  0.74528090    -0.72050
O2588       O  0.68497967  0.78697683  0.79484551    -0.75640
Al2589     Al  0.69107075  0.77566412  0.74995678     1.48980
C2590       C  0.67075270  0.77165577  0.81597519     0.91670
O2591       O  0.67422521  0.68387941  0.79394061    -0.81860
O2592       O  0.70065079  0.67660006  0.73545952    -0.75420
Al2593     Al  0.70203922  0.71922811  0.79398204     1.90120
O2594       O  0.64273723  0.69815751  0.75559525    -0.74490
O2595       O  0.70079086  0.72313631  0.69636997    -0.74340
O2596       O  0.64107291  0.74024282  0.71223750    -0.80000
O2597       O  0.69574741  0.77296694  0.70288180    -0.78200
O2598       O  0.68899234  0.73532365  0.75659904    -1.14340
O2599       O  0.73490846  0.77451243  0.75525247    -0.73530
C2600       C  0.74892374  0.76448814  0.78042975     0.97180
C2601       C  0.65152521  0.67788019  0.77515760     0.93580
Al2602     Al  0.67253464  0.71127813  0.72687717     1.55560
O2603       O  0.67243081  0.74248979  0.81636720    -0.78150
C2604       C  0.70110549  0.74988110  0.68489333     0.97750
C2605       C  0.72487018  0.67354278  0.75326779     0.92630
O2606       O  0.73208332  0.69412015  0.77395392    -0.83470
O2607       O  0.98048657  0.69213128  0.74176758    -0.82930
C2608       C  0.88221238  0.76015944  0.79065748     0.96420
O2609       O  0.89453436  0.73757319  0.80554569    -0.72050
O2610       O  0.89273269  0.69486101  0.76293749    -0.75640
Al2611     Al  0.92482986  0.70876863  0.79002207     1.48980
C2612       C  0.89890010  0.67682486  0.74047035     0.91670
O2613       O  0.91822366  0.74081317  0.70041349    -0.81860
O2614       O  0.98508824  0.77265602  0.76063072    -0.75420
Al2615     Al  0.94911896  0.71740292  0.72229590     1.90120
O2616       O  0.93200805  0.78516931  0.72220110    -0.74490
O2617       O  0.94871371  0.77058101  0.81404251    -0.74340
O2618       O  0.89821014  0.77659822  0.77232294    -0.80000
O2619       O  0.95587543  0.72099301  0.81933931    -0.78200
O2620       O  0.93865867  0.73313378  0.75989658    -1.14340
O2621       O  0.95183407  0.67434935  0.78058865    -0.73530
C2622       C  0.97544889  0.67212592  0.76333186     0.97180
C2623       C  0.91629167  0.76990173  0.70119266     0.93580
Al2624     Al  0.94128184  0.77348585  0.76688905     1.55560
O2625       O  0.92097043  0.68296955  0.72225181    -0.78150
C2626       C  0.95535706  0.74736622  0.83168684     0.97750
C2627       C  0.99704979  0.76263261  0.73489160     0.92630
O2628       O  0.98061268  0.74757599  0.71457894    -0.83470
O2629       O  0.63250960  0.84134359  0.04742993    -0.82930
C2630       C  0.61129220  0.73735196  0.97617593     0.96420
O2631       O  0.59668274  0.75530327  0.99416713    -0.72050
O2632       O  0.59315372  0.79221587  0.04373067    -0.75640
Al2633     Al  0.60204355  0.79868518  0.99815018     1.48980
C2634       C  0.60971579  0.77897785  0.06558686     0.91670
O2635       O  0.69465063  0.77992219  0.04024106    -0.81860
O2636       O  0.70045256  0.80352730  0.98093888    -0.75420
Al2637     Al  0.66100972  0.80884195  0.03986092     1.90120
O2638       O  0.67805720  0.74718458  0.00414059    -0.74490
O2639       O  0.65269848  0.80581207  0.94325337    -0.74340
O2640       O  0.63407323  0.74731545  0.96091422    -0.80000
O2641       O  0.60296544  0.80382568  0.95063623    -0.78200
O2642       O  0.64243357  0.79519064  0.00390522    -1.14340
O2643       O  0.60417650  0.84287500  0.00282712    -0.73530
C2644       C  0.61572486  0.85634821  0.02768476     0.97180
C2645       C  0.69868794  0.75563177  0.02401458     0.93580
Al2646     Al  0.66456947  0.77727739  0.97440953     1.55560
O2647       O  0.63873297  0.78087508  0.06509595    -0.78150
C2648       C  0.62563775  0.80786288  0.93219425     0.97750
C2649       C  0.70375031  0.82931463  0.99515786     0.92630
O2650       O  0.68508075  0.83779252  0.01644656    -0.83470
O2651       O  0.68140894  0.58985901  0.98831488    -0.82930
C2652       C  0.61365912  0.98961400  0.03524460     0.96420
O2653       O  0.63549078  0.00209858  0.05183859    -0.72050
O2654       O  0.67730429  0.50201029  0.01088901    -0.75640
Al2655     Al  0.66423269  0.53352861  0.03747975     1.48980
C2656       C  0.69774954  0.50923789  0.99198773     0.91670
O2657       O  0.63319147  0.52742254  0.94682217    -0.81860
O2658       O  0.60048662  0.59224108  0.00569008    -0.75420
Al2659     Al  0.65644869  0.55838113  0.96906078     1.90120
O2660       O  0.58889312  0.54147898  0.96658389    -0.74490
O2661       O  0.60247408  0.55503063  0.05907168    -0.74340
O2662       O  0.59747402  0.50591877  0.01626643    -0.80000
O2663       O  0.65162612  0.56416906  0.06581196    -0.78200
O2664       O  0.64037436  0.54752835  0.00627710    -1.14340
O2665       O  0.69879642  0.56159489  0.02901216    -0.73530
C2666       C  0.70185905  0.58438015  0.00993154     0.97180
C2667       C  0.60404359  0.52668408  0.94582199     0.93580
Al2668     Al  0.60006247  0.54904324  0.01161014     1.55560
O2669       O  0.69202568  0.53031976  0.97141700    -0.78150
C2670       C  0.62547428  0.56188357  0.07750817     0.97750
C2671       C  0.60986874  0.60519518  0.98023386     0.92630
O2672       O  0.62595286  0.59021872  0.96031374    -0.83470
O2673       O  0.64078769  0.64539635  0.54960266    -0.82930
C2674       C  0.65641732  0.74468818  0.47308777     0.96420
O2675       O  0.67225987  0.72819905  0.49231443    -0.72050
O2676       O  0.68006388  0.69303309  0.54287244    -0.75640
Al2677     Al  0.66828284  0.68507436  0.49792869     1.48980
C2678       C  0.66530764  0.70831151  0.56357347     0.91670
O2679       O  0.57839465  0.70810608  0.53847249    -0.81860
O2680       O  0.56888490  0.67621864  0.48080972    -0.75420
Al2681     Al  0.61182202  0.67841695  0.54064865     1.90120
O2682       O  0.59125625  0.73540397  0.49689044    -0.74490
O2683       O  0.61608958  0.67079856  0.44426622    -0.74340
O2684       O  0.63441888  0.73243650  0.45654371    -0.80000
O2685       O  0.66557053  0.67816257  0.45078796    -0.78200
O2686       O  0.62799289  0.68836364  0.50332628    -1.14340
O2687       O  0.66630555  0.64161021  0.50454925    -0.73530
C2688       C  0.65593641  0.62927120  0.52991815     0.97180
C2689       C  0.57281952  0.72983039  0.51872574     0.93580
Al2690     Al  0.60440270  0.70255118  0.47171988     1.55560
O2691       O  0.63622262  0.70834679  0.56250264    -0.78150
C2692       C  0.64241552  0.67104264  0.43274338     0.97750
C2693       C  0.56538370  0.65359657  0.49993263     0.92630
O2694       O  0.58535176  0.64792774  0.52194728    -0.83470
O2695       O  0.58282676  0.89524621  0.49192533    -0.82930
C2696       C  0.65451910  0.49605520  0.53573884     0.96420
O2697       O  0.63242601  0.98478775  0.55130215    -0.72050
O2698       O  0.58771781  0.98462698  0.50946105    -0.75640
Al2699     Al  0.60264470  0.95396690  0.53737600     1.48980
C2700       C  0.56798266  0.97692424  0.48839073     0.91670
O2701       O  0.62889122  0.95474548  0.44671124    -0.81860
O2702       O  0.66453643  0.89137699  0.50702771    -0.75420
Al2703     Al  0.60696353  0.92532270  0.47040056     1.90120
O2704       O  0.67451208  0.94309770  0.46742150    -0.74490
O2705       O  0.66528158  0.92983500  0.56015724    -0.74340
O2706       O  0.66960231  0.97891689  0.51736604    -0.80000
O2707       O  0.61588574  0.92457765  0.56726380    -0.78200
O2708       O  0.62507391  0.93797985  0.50702216    -1.14340
O2709       O  0.56762157  0.92680515  0.52994587    -0.73530
C2710       C  0.56403689  0.90212253  0.51369199     0.97180
C2711       C  0.65780813  0.95753546  0.44662953     0.93580
Al2712     Al  0.66565166  0.93553038  0.51267205     1.55560
O2713       O  0.57289344  0.95370385  0.47073475    -0.78150
C2714       C  0.64291429  0.92455815  0.57862564     0.97750
C2715       C  0.65324225  0.87813763  0.48185880     0.92630
O2716       O  0.63622529  0.89327010  0.46229406    -0.83470
O2717       O  0.78598649  0.98048427  0.79318189    -0.82930
C2718       C  0.88629718  0.97034947  0.71953132     0.96420
O2719       O  0.87027003  0.95352448  0.73735889    -0.72050
O2720       O  0.83506256  0.94331185  0.78629486    -0.75640
Al2721     Al  0.82691546  0.95571544  0.74154828     1.48980
C2722       C  0.85022557  0.95836161  0.80786054     0.91670
O2723       O  0.84569716  0.54633890  0.78773629    -0.81860
O2724       O  0.81469733  0.55494911  0.72924024    -0.75420
Al2725     Al  0.81766084  0.51115997  0.78699218     1.90120
O2726       O  0.87385919  0.53408963  0.74732565    -0.74490
O2727       O  0.81168414  0.50857979  0.68978052    -0.74340
O2728       O  0.87345823  0.49244429  0.70406326    -0.80000
O2729       O  0.82031868  0.95918563  0.69418694    -0.78200
O2730       O  0.82852999  0.49602334  0.74917716    -1.14340
O2731       O  0.78333145  0.95583392  0.74659380    -0.73530
C2732       C  0.77049072  0.96519674  0.77200206     0.97180
C2733       C  0.86726879  0.55280537  0.76890220     0.93580
Al2734     Al  0.84232484  0.52076842  0.71955009     1.55560
O2735       O  0.84852466  0.98747644  0.80875905    -0.78150
C2736       C  0.81329207  0.98251977  0.67683750     0.97750
C2737       C  0.79181756  0.55745452  0.74754424     0.92630
O2738       O  0.78638948  0.53678655  0.76825038    -0.83470
O2739       O  0.54065122  0.54185716  0.73957962    -0.82930
C2740       C  0.63844094  0.96768037  0.78491873     0.96420
O2741       O  0.62819543  0.49033495  0.80063939    -0.72050
O2742       O  0.63020525  0.53338735  0.75825674    -0.75640
Al2743     Al  0.59905937  0.52111484  0.78592287     1.48980
C2744       C  0.62298381  0.55365776  0.73794577     0.91670
O2745       O  0.59821407  0.99186427  0.69558435    -0.81860
O2746       O  0.53324473  0.96128420  0.75468332    -0.75420
Al2747     Al  0.56964134  0.51599217  0.71854617     1.90120
O2748       O  0.58374303  0.94752236  0.71601491    -0.74490
O2749       O  0.57180628  0.96028296  0.80801422    -0.74340
O2750       O  0.62048181  0.95248608  0.76635321    -0.80000
O2751       O  0.56949353  0.51026241  0.81534966    -0.78200
O2752       O  0.58160630  0.99844681  0.75540412    -1.14340
O2753       O  0.57360551  0.55734601  0.77784239    -0.73530
C2754       C  0.54878292  0.56105414  0.76137873     0.97180
C2755       C  0.59891056  0.96264172  0.69546705     0.93580
Al2756     Al  0.57723573  0.95815533  0.76098146     1.55560
O2757       O  0.59941708  0.54939487  0.71981016    -0.78150
C2758       C  0.56742643  0.98340413  0.82628927     0.97750
C2759       C  0.52024383  0.97261207  0.72942556     0.92630
O2760       O  0.53616082  0.98764341  0.70963393    -0.83470
O2761       O  0.53893240  0.73740434  0.29948489    -0.82930
C2762       C  0.63630972  0.72016660  0.22387551     0.96420
O2763       O  0.62003674  0.70447872  0.24261288    -0.72050
O2764       O  0.58502982  0.69747851  0.29239642    -0.75640
Al2765     Al  0.57686216  0.70897476  0.24748902     1.48980
C2766       C  0.60178364  0.71212026  0.31297798     0.91670
O2767       O  0.60190853  0.79947836  0.29036158    -0.81860
O2768       O  0.56895405  0.80810052  0.23221929    -0.75420
Al2769     Al  0.57205335  0.76602884  0.29153560     1.90120
O2770       O  0.62766914  0.78542784  0.24902659    -0.74490
O2771       O  0.56209472  0.76050875  0.19491469    -0.74340
O2772       O  0.62392883  0.74206750  0.20767393    -0.80000
O2773       O  0.57018145  0.71119486  0.19996697    -0.78200
O2774       O  0.58079366  0.74935409  0.25383864    -1.14340
O2775       O  0.53327002  0.71194461  0.25350210    -0.73530
C2776       C  0.52178608  0.72304763  0.27906633     0.97180
C2777       C  0.62156494  0.80562050  0.26924302     0.93580
Al2778     Al  0.59453778  0.77240431  0.22285909     1.55560
O2779       O  0.60206171  0.74125392  0.31284795    -0.78150
C2780       C  0.56384783  0.73442108  0.18218971     0.97750
C2781       C  0.54763645  0.81297961  0.25196649     0.92630
O2782       O  0.54168158  0.79310534  0.27331248    -0.83470
O2783       O  0.78663196  0.79403015  0.24725232    -0.82930
C2784       C  0.88850076  0.72375067  0.28818998     0.96420
O2785       O  0.87715322  0.74507956  0.30522517    -0.72050
O2786       O  0.87622968  0.79066331  0.26612219    -0.75640
Al2787     Al  0.84590019  0.77485023  0.29253517     1.48980
C2788       C  0.86844968  0.81004235  0.24514081     0.91670
O2789       O  0.84597986  0.74948907  0.20053905    -0.81860
O2790       O  0.78345865  0.71269193  0.25873769    -0.75420
Al2791     Al  0.81660118  0.77092914  0.22494386     1.90120
O2792       O  0.83426540  0.70357438  0.21899977    -0.74490
O2793       O  0.82289319  0.71148985  0.31199689    -0.74340
O2794       O  0.87111026  0.70848494  0.26921814    -0.80000
O2795       O  0.81697727  0.76075138  0.32118409    -0.78200
O2796       O  0.82982793  0.75257424  0.26084459    -1.14340
O2797       O  0.81811092  0.80981509  0.28650641    -0.73530
C2798       C  0.79286409  0.81236346  0.27043974     0.97180
C2799       C  0.84850521  0.72046268  0.19912865     0.93580
Al2800     Al  0.82767486  0.71185655  0.26458271     1.55560
O2801       O  0.84463225  0.80554748  0.22741696    -0.78150
C2802       C  0.81732554  0.73355998  0.33130444     0.97750
C2803       C  0.76979069  0.72416561  0.23390169     0.92630
O2804       O  0.78466766  0.74124404  0.21503965    -0.83470
O2805       O  0.83707068  0.64705546  0.99178110    -0.82930
C2806       C  0.90657090  0.74791723  0.03921835     0.96420
O2807       O  0.88425891  0.73637823  0.05434185    -0.72050
O2808       O  0.84181683  0.73593665  0.01030168    -0.75640
Al2809     Al  0.85502571  0.70528168  0.03920354     1.48980
C2810       C  0.82174593  0.72781671  0.98979036     0.91670
O2811       O  0.88561896  0.70741222  0.95030697    -0.81860
O2812       O  0.91768110  0.64343672  0.01279685    -0.75420
Al2813     Al  0.86234213  0.67752371  0.97233121     1.90120
O2814       O  0.93010730  0.69394624  0.97279373    -0.74490
O2815       O  0.91667270  0.68295623  0.06511190    -0.74340
O2816       O  0.92254754  0.73086763  0.02159769    -0.80000
O2817       O  0.86721361  0.67574900  0.06970573    -0.78200
O2818       O  0.87870014  0.68966351  0.00999809    -1.14340
O2819       O  0.82022140  0.67759727  0.02999360    -0.73530
C2820       C  0.81705549  0.65361155  0.01246714     0.97180
C2821       C  0.91472556  0.70858804  0.95108937     0.93580
Al2822     Al  0.91903630  0.68745726  0.01765493     1.55560
O2823       O  0.82756149  0.70549255  0.97131925    -0.78150
C2824       C  0.89362494  0.67736594  0.08253575     0.97750
C2825       C  0.90756762  0.63037198  0.98706174     0.92630
O2826       O  0.89239219  0.64584774  0.96599086    -0.83470
O2827       O  0.87714940  0.89189661  0.03989860    -0.82930
C2828       C  0.89714950  0.49958827  0.97178153     0.96420
O2829       O  0.91693090  0.97860528  0.97717633    -0.72050
O2830       O  0.92679621  0.95414996  0.03335535    -0.75640
Al2831     Al  0.91353133  0.93703004  0.99269457     1.48980
C2832       C  0.91358840  0.95953162  0.05941660     0.91670
O2833       O  0.83277543  0.96583568  0.04443876    -0.81860
O2834       O  0.82232102  0.91982164  0.96628634    -0.75420
Al2835     Al  0.85660521  0.92979793  0.03799557     1.90120
O2836       O  0.81979283  0.97454249  0.99435133    -0.74490
O2837       O  0.86736424  0.94223183  0.93357054    -0.74340
O2838       O  0.86875304  0.99364208  0.96883783    -0.80000
O2839       O  0.90967659  0.91969749  0.94942668    -0.78200
O2840       O  0.87255837  0.94065469  0.99980462    -1.14340
O2841       O  0.91637750  0.89527629  0.00812857    -0.73530
C2842       C  0.90037053  0.87999437  0.02758384     0.97180
C2843       C  0.81624689  0.97912077  0.02357961     0.93580
Al2844     Al  0.84728513  0.95603683  0.96870938     1.55560
O2845       O  0.88664197  0.95023791  0.06361539    -0.78150
C2846       C  0.89049586  0.92689417  0.92733589     0.97750
C2847       C  0.81177852  0.90473768  0.98973846     0.92630
O2848       O  0.82262160  0.90799867  0.01830963    -0.83470
C2849       C  0.92316433  0.54408848  0.99837401    -0.10290
C2850       C  0.90661933  0.53216050  0.97147359     0.05900
C2851       C  0.89448195  0.55250066  0.94803520    -0.04060
C2852       C  0.89734112  0.58425784  0.95267107    -0.08510
C2853       C  0.91146412  0.59667423  0.98102149     0.05020
C2854       C  0.92552361  0.57604679  0.00353395    -0.04010
Br2855     Br  0.94647215  0.58918568  0.04275346    -0.03230
H2856       H  0.93235511  0.52847083  0.01671090     0.08930
H2857       H  0.88682165  0.59922820  0.93453601     0.06950
Br2858     Br  0.87257495  0.53801949  0.90987217    -0.03660
C2859       C  0.92588041  0.83017236  0.01406042    -0.10290
C2860       C  0.90751464  0.84710970  0.03507488     0.05900
C2861       C  0.89411377  0.83136912  0.06126614    -0.04060
C2862       C  0.89614761  0.79923727  0.06341105    -0.08510
C2863       C  0.91195195  0.78189817  0.04049178     0.05020
C2864       C  0.92857625  0.79801974  0.01672444    -0.03530
Br2865     Br  0.95432414  0.77829328  0.98589341    -0.03230
H2866       H  0.93717356  0.84178057  0.99444065     0.08930
H2867       H  0.88422775  0.78764368  0.08262803     0.06950
Br2868     Br  0.87241902  0.85164605  0.09521419    -0.03660
C2869       C  0.86136608  0.67543773  0.16411623    -0.10290
C2870       C  0.86725153  0.70616900  0.17343913     0.05900
C2871       C  0.89048984  0.72267469  0.15725853    -0.04060
C2872       C  0.90408609  0.70978311  0.13001517    -0.08510
C2873       C  0.89469951  0.68085316  0.11804549     0.05020
C2874       C  0.87493381  0.66280641  0.13675595    -0.03530
Br2875     Br  0.86331103  0.62192730  0.12342502    -0.03230
H2876       H  0.84470264  0.66174923  0.17685526     0.08930
H2877       H  0.91929561  0.72403130  0.11597172     0.06950
Br2878     Br  0.90406555  0.76338082  0.16976395    -0.03660
C2879       C  0.68702679  0.73203110  0.20000417    -0.10290
C2880       C  0.67036795  0.71503040  0.22251809     0.05900
C2881       C  0.68730455  0.69736265  0.24581099    -0.04060
C2882       C  0.71958329  0.69964012  0.24805512    -0.08510
C2883       C  0.73607641  0.71869754  0.22716090     0.05020
C2884       C  0.71924185  0.73392381  0.20183405    -0.03530
Br2885     Br  0.73748268  0.75933162  0.16936532    -0.03230
H2886       H  0.67482148  0.74517580  0.18140124     0.08930
H2887       H  0.73177123  0.68702465  0.26706561     0.06950
Br2888     Br  0.66857814  0.67031713  0.27635144    -0.03660
C2889       C  0.97002242  0.70045008  0.26487875    -0.10290
C2890       C  0.98807752  0.71992673  0.28499231     0.05900
C2891       C  0.97289703  0.73756518  0.30874803    -0.04060
C2892       C  0.94078696  0.73652821  0.31058378    -0.08510
C2893       C  0.92256382  0.71852276  0.28919475     0.05020
C2894       C  0.93779734  0.69946350  0.26673526    -0.03530
Br2895     Br  0.91677088  0.67227189  0.23666355    -0.03230
H2896       H  0.98095519  0.68636900  0.24682143     0.08930
H2897       H  0.92990959  0.75120114  0.32817036     0.06950
Br2898     Br  0.99324300  0.76564538  0.33845784    -0.03660
C2899       C  0.93725215  0.48509191  0.69776037    -0.10290
C2900       C  0.92048440  0.96593561  0.71826192     0.05900
C2901       C  0.93733489  0.94630416  0.73980394    -0.04060
C2902       C  0.96963392  0.94818447  0.74212042    -0.08510
C2903       C  0.98625517  0.96889922  0.72311476     0.05020
C2904       C  0.96948193  0.98687161  0.69989820    -0.03530
Br2905     Br  0.98786630  0.51627925  0.67139973    -0.03230
H2906       H  0.92512849  0.50006164  0.68071797     0.08930
H2907       H  0.98179741  0.93367045  0.75956458     0.06950
Br2908     Br  0.91849411  0.91677432  0.76773322    -0.03660
C2909       C  0.68473376  0.94692605  0.75832015    -0.10290
C2910       C  0.67208722  0.96104278  0.78560289     0.05900
C2911       C  0.69243379  0.97258867  0.81001748    -0.04060
C2912       C  0.72427262  0.97165905  0.80575356    -0.08510
C2913       C  0.73694931  0.95989296  0.77724300     0.05020
C2914       C  0.71662387  0.94641869  0.75377011    -0.03530
Br2915     Br  0.72985894  0.92868265  0.71384326    -0.03230
H2916       H  0.66962728  0.93793648  0.73918990     0.08930
H2917       H  0.73913264  0.98159761  0.82454193     0.06950
Br2918     Br  0.67872671  0.49088689  0.84948928    -0.03660
C2919       C  0.85708989  0.91522346  0.84739459    -0.10290
C2920       C  0.86873866  0.94213418  0.83334112     0.05900
C2921       C  0.89637964  0.95494726  0.84640977    -0.04060
C2922       C  0.90905246  0.94362329  0.87563199    -0.08510
C2923       C  0.89394248  0.92043089  0.89276669     0.05020
C2924       C  0.86956134  0.90433342  0.87690867    -0.03530
Br2925     Br  0.84821389  0.87190397  0.89860109    -0.03230
H2926       H  0.83639203  0.90450840  0.83726926     0.08930
H2927       H  0.92787159  0.95625389  0.88733352     0.06950
Br2928     Br  0.91657691  0.98935951  0.82669490    -0.03660
C2929       C  0.62420470  0.90622253  0.63058448    -0.10290
C2930       C  0.64567125  0.92454336  0.61436942     0.05900
C2931       C  0.65703725  0.95129600  0.63009151    -0.04060
C2932       C  0.64260586  0.96229529  0.65771461    -0.08510
C2933       C  0.61738278  0.94660402  0.67072537     0.05020
C2934       C  0.60977285  0.91706100  0.65830576    -0.03530
Br2935     Br  0.57695508  0.89225794  0.67458339    -0.03230
H2936       H  0.61537176  0.88540156  0.61901932     0.08930
H2937       H  0.65003903  0.48422316  0.66794595     0.06950
Br2938     Br  0.68869287  0.47644521  0.61213381    -0.03660
C2939       C  0.65815546  0.69587023  0.38269008    -0.10290
C2940       C  0.64353045  0.67073399  0.39711533     0.05900
C2941       C  0.62045739  0.65470651  0.37905965    -0.04060
C2942       C  0.60860689  0.66719447  0.35008222    -0.08510
C2943       C  0.61966837  0.69546554  0.33858486     0.05020
C2944       C  0.64634130  0.70846262  0.35373422    -0.03530
Br2945     Br  0.66685658  0.74422270  0.33711879    -0.03230
H2946       H  0.67625878  0.70822798  0.39590068     0.08930
H2947       H  0.58904450  0.65606746  0.33805438     0.06950
Br2948     Br  0.60142236  0.61809887  0.39549811    -0.03660
C2949       C  0.67711326  0.57830888  0.51346669    -0.10290
C2950       C  0.66045748  0.59554260  0.53585612     0.05900
C2951       C  0.64628960  0.57942965  0.56134549    -0.04060
C2952       C  0.64660252  0.54711233  0.56193465    -0.08510
C2953       C  0.66104546  0.52983746  0.53792203     0.05020
C2954       C  0.67776264  0.54600278  0.51433192    -0.03530
Br2955     Br  0.70066370  0.52632689  0.48107251    -0.03230
H2956       H  0.68886676  0.58994970  0.49417919     0.08930
H2957       H  0.63430407  0.53538398  0.58078771     0.06950
Br2958     Br  0.62477011  0.59907800  0.59572825    -0.03660
C2959       C  0.64570153  0.79600865  0.44790638    -0.10290
C2960       C  0.66170379  0.77880972  0.47169839     0.05900
C2961       C  0.67879599  0.79523318  0.49599905    -0.04060
C2962       C  0.67678045  0.82750856  0.49786657    -0.08510
C2963       C  0.65871506  0.84453963  0.47556285     0.05020
C2964       C  0.64436534  0.82831132  0.44922275    -0.03530
Br2965     Br  0.62152598  0.84766507  0.41420258    -0.03230
H2966       H  0.63313359  0.78418062  0.42852019     0.08930
H2967       H  0.68878820  0.83926037  0.51767142     0.06950
Br2968     Br  0.70453324  0.77588768  0.52862608    -0.03660
C2969       C  0.54866094  0.50428499  0.87697225    -0.10290
C2970       C  0.56588579  0.98122368  0.86177577     0.05900
C2971       C  0.59110674  0.46818009  0.87901448    -0.04060
C2972       C  0.60230701  0.48244330  0.90741168    -0.08510
C2973       C  0.58795981  0.50890492  0.91972820     0.05020
C2974       C  0.55963705  0.51851564  0.90545672    -0.03530
Br2975     Br  0.53744449  0.55402216  0.92003945    -0.03230
H2976       H  0.52907057  0.01445137  0.86408989     0.08930
H2977       H  0.62325895  0.47374231  0.91900079     0.06950
Br2978     Br  0.61399228  0.43408239  0.86231994    -0.03660
C2979       C  0.74427220  0.61233955  0.04066574    -0.10290
C2980       C  0.73083504  0.60291424  0.01089878     0.05900
C2981       C  0.74651079  0.60977640  0.98221538    -0.04060
C2982       C  0.77492298  0.62507138  0.98378959    -0.08510
C2983       C  0.78811534  0.63510790  0.01334689     0.05020
C2984       C  0.77220268  0.62898311  0.04202693    -0.03530
Br2985     Br  0.78778399  0.64201160  0.08370578    -0.03230
H2986       H  0.73275822  0.60714716  0.06293056     0.08930
H2987       H  0.78650650  0.62981123  0.96144884     0.06950
Br2988     Br  0.73149907  0.59772346  0.93986142    -0.03660
C2989       C  0.76480526  0.97608867  0.04051905    -0.10290
C2990       C  0.78853281  0.99562263  0.03120817     0.05900
C2991       C  0.78155214  0.52126036  0.01161484    -0.04060
C2992       C  0.75272428  0.52333508  0.99616945    -0.08510
C2993       C  0.72961514  0.50154515  0.00221337     0.05020
C2994       C  0.73570972  0.97822943  0.02566309    -0.03530
Br2995     Br  0.70637468  0.94727887  0.03770932    -0.03230
H2996       H  0.77005924  0.95615507  0.05555127     0.08930
H2997       H  0.74827293  0.54242737  0.97990932     0.06950
Br2998     Br  0.81299147  0.55037805  0.00081063    -0.03660
C2999       C  0.59256740  0.90688617  0.01132850    -0.10290
C3000       C  0.61083236  0.88999277  0.03352080     0.05900
C3001       C  0.62582826  0.90630665  0.05941266    -0.04060
C3002       C  0.62469360  0.93856304  0.06046856    -0.08510
C3003       C  0.60846323  0.95559328  0.03676693     0.05020
C3004       C  0.59085940  0.93914658  0.01289391    -0.03530
Br3005     Br  0.56467071  0.95835720  0.98056799    -0.03230
H3006       H  0.58011553  0.89502179  0.99189457     0.08930
H3007       H  0.63760809  0.95047985  0.07954885     0.06950
Br3008     Br  0.64935349  0.88722490  0.09413080    -0.03660
C3009       C  0.61246623  0.68707869  0.94692359    -0.10290
C3010       C  0.60346777  0.70401054  0.97409937     0.05900
C3011       C  0.59144840  0.68774208  0.00053679    -0.04060
C3012       C  0.59179714  0.65555494  0.00079386    -0.08510
C3013       C  0.60357808  0.63857920  0.97499949     0.05020
C3014       C  0.61211629  0.65472422  0.94686284    -0.03530
Br3015     Br  0.62367079  0.63462914  0.90755393    -0.03230
H3016       H  0.62084335  0.69907299  0.92592196     0.08930
H3017       H  0.58428948  0.64384284  0.02233913     0.06950
Br3018     Br  0.57685672  0.70706231  0.03879267    -0.03660
C3019       C  0.59711876  0.72461056  0.13677613    -0.10290
C3020       C  0.56813342  0.73425369  0.14690824     0.05900
C3021       C  0.55104065  0.75482906  0.12705340    -0.04060
C3022       C  0.56440536  0.76814914  0.09992205    -0.08510
C3023       C  0.59509889  0.76168740  0.09228161     0.05020
C3024       C  0.61102813  0.73852356  0.11034664    -0.03530
Br3025     Br  0.65222075  0.72516799  0.10157404    -0.03230
H3026       H  0.61068633  0.70890871  0.15178186     0.08930
H3027       H  0.55128121  0.78495723  0.08589987     0.06950
Br3028     Br  0.51045280  0.76773224  0.13826524    -0.03660
C3029       C  0.78460539  0.75468540  0.02351971    -0.10290
C3030       C  0.78968598  0.73710893  0.99545128     0.05900
C3031       C  0.76436630  0.72244871  0.97976629    -0.04060
C3032       C  0.73517493  0.72533846  0.99249562    -0.08510
C3033       C  0.73007906  0.74368574  0.02001615     0.05020
C3034       C  0.75552824  0.75741629  0.03630401    -0.03530
Br3035     Br  0.75281394  0.78053129  0.07590924    -0.03230
H3036       H  0.80365300  0.76559333  0.03667070     0.08930
H3037       H  0.71598934  0.71474245  0.97927922     0.06950
Br3038     Br  0.76715452  0.69921213  0.94027084    -0.03660
C3039       C  0.76038469  0.83466233  0.99280978    -0.10290
C3040       C  0.73118540  0.84818073  0.98873360     0.05900
C3041       C  0.72899702  0.87949024  0.97999680    -0.04060
C3042       C  0.75588450  0.89736479  0.97808026    -0.08510
C3043       C  0.78499899  0.88424721  0.98471736     0.05020
C3044       C  0.78718442  0.85247719  0.99125524    -0.03530
Br3045     Br  0.82625266  0.83270303  0.99885769    -0.03230
H3046       H  0.76229924  0.81039185  0.99852243     0.08930
H3047       H  0.75397572  0.92181165  0.97280517     0.06950
Br3048     Br  0.68985615  0.89808383  0.96947910    -0.03660
C3049       C  0.92942077  0.76288402  0.88108486    -0.10290
C3050       C  0.95487936  0.74848214  0.86737508     0.05900
C3051       C  0.97103137  0.72586927  0.88565096    -0.04060
C3052       C  0.95886328  0.71464184  0.91435604    -0.08510
C3053       C  0.93063210  0.72567416  0.92531613     0.05020
C3054       C  0.91710902  0.75161193  0.90973266    -0.03530
Br3055     Br  0.88124648  0.77200406  0.92566485    -0.03230
H3056       H  0.91681134  0.78048087  0.86761643     0.08930
H3057       H  0.97028411  0.69557456  0.92665949     0.06950
Br3058     Br  0.00760509  0.70673606  0.87000587    -0.03660
C3059       C  0.54393405  0.61778143  0.75725428    -0.10290
C3060       C  0.53078331  0.58952989  0.76572719     0.05900
C3061       C  0.00086319  0.58914959  0.77769777    -0.04060
C3062       C  0.98345547  0.61648292  0.77789021    -0.08510
C3063       C  0.99582705  0.64461830  0.76687797     0.05020
C3064       C  0.52702330  0.64521168  0.75804369    -0.03530
Br3065     Br  0.54859260  0.68269093  0.74873529    -0.03230
H3066       H  0.56755628  0.61845458  0.74957680     0.08930
H3067       H  0.95996988  0.61554599  0.78609089     0.06950
Br3068     Br  0.98417062  0.55213279  0.79577134    -0.03660
C3069       C  0.85757255  0.60853352  0.77311296    -0.10290
C3070       C  0.87791067  0.58476051  0.76493491     0.05900
C3071       C  0.90267994  0.59157432  0.74457973    -0.04060
C3072       C  0.90686354  0.62149203  0.73352826    -0.08510
C3073       C  0.88692563  0.64527761  0.74225647     0.05020
C3074       C  0.86140419  0.63837323  0.76131406    -0.03530
Br3075     Br  0.83062651  0.66858669  0.77118303    -0.03230
H3076       H  0.83752790  0.60360209  0.78721014     0.08930
H3077       H  0.92698855  0.62640475  0.71947123     0.06950
Br3078     Br  0.93173867  0.56146068  0.73016390    -0.03660
C3079       C  0.71972249  0.72933638  0.63370952    -0.10290
C3080       C  0.70196941  0.75176833  0.64930644     0.05900
C3081       C  0.67668954  0.76483673  0.63216556    -0.04060
C3082       C  0.66651914  0.75162127  0.60287758    -0.08510
C3083       C  0.68141511  0.72577244  0.58990174     0.05020
C3084       C  0.70954468  0.71599292  0.60442322    -0.03530
Br3085     Br  0.73253059  0.68143863  0.58881992    -0.03230
H3086       H  0.73931239  0.71912260  0.64654101     0.08930
H3087       H  0.64557690  0.76034382  0.59128056     0.06950
Br3088     Br  0.65176921  0.79687291  0.65001842    -0.03660
C3089       C  0.54833903  0.78595490  0.74998409    -0.10290
C3090       C  0.53056158  0.76736138  0.72871570     0.05900
C3091       C  0.54598224  0.75166983  0.70364769    -0.04060
C3092       C  0.57816761  0.75257639  0.70248604    -0.08510
C3093       C  0.59611904  0.76907444  0.72540319     0.05020
C3094       C  0.58058191  0.78729208  0.74837372    -0.03530
Br3095     Br  0.60123492  0.81368445  0.77943411    -0.03230
H3096       H  0.53719899  0.79890988  0.76879078     0.08930
H3097       H  0.58931766  0.73899667  0.68415686     0.06950
Br3098     Br  0.52584079  0.72623377  0.67120260    -0.03660
C3099       C  0.83392326  0.78297663  0.76722118    -0.10290
C3100       C  0.84841360  0.76581280  0.79224642     0.05900
C3101       C  0.82965762  0.75146283  0.81523704    -0.04060
C3102       C  0.79753019  0.75301459  0.81169297    -0.08510
C3103       C  0.78296257  0.76837907  0.78539568     0.05020
C3104       C  0.80175338  0.78430585  0.76348011    -0.03530
Br3105     Br  0.78581938  0.80738059  0.72701003    -0.03230
H3106       H  0.84768965  0.79425798  0.74923247     0.08930
H3107       H  0.78389221  0.74089351  0.82918359     0.06950
Br3108     Br  0.84581640  0.72863746  0.85177735    -0.03660
C3109       C  0.64474225  0.82742939  0.88104101    -0.10290
C3110       C  0.62285388  0.80903158  0.89655720     0.05900
C3111       C  0.61162052  0.78255059  0.88030093    -0.04060
C3112       C  0.62659745  0.77166148  0.85299435    -0.08510
C3113       C  0.65211456  0.78739030  0.84069310     0.05020
C3114       C  0.65970000  0.81674068  0.85357546    -0.03530
Br3115     Br  0.69324684  0.84120370  0.83838153    -0.03230
H3116       H  0.65357484  0.84799161  0.89311982     0.08930
H3117       H  0.61926932  0.74986288  0.84237438     0.06950
Br3118     Br  0.57958203  0.75745410  0.89752629    -0.03660
C3119       C  0.74526888  0.62866818  0.72178009    -0.10290
C3120       C  0.74326103  0.64451072  0.75146931     0.05900
C3121       C  0.75685699  0.63079526  0.77950426    -0.04060
C3122       C  0.77124226  0.60198455  0.77748576    -0.08510
C3123       C  0.77377248  0.58654559  0.74785757     0.05020
C3124       C  0.76090679  0.60028637  0.71970574    -0.03530
Br3125     Br  0.76286933  0.58043660  0.67832126    -0.03230
H3126       H  0.73478330  0.63848829  0.70003161     0.08930
H3127       H  0.78135869  0.59187748  0.79928886     0.06950
Br3128     Br  0.75637980  0.64932222  0.82177424    -0.03660
C3129       C  0.65202789  0.59068693  0.77243642    -0.10290
C3130       C  0.63551142  0.58504372  0.74310277     0.05900
C3131       C  0.62412492  0.61036198  0.72519774    -0.04060
C3132       C  0.62716363  0.63995957  0.73793737    -0.08510
C3133       C  0.64257314  0.64558834  0.76789829     0.05020
C3134       C  0.65507450  0.62036668  0.78520192    -0.03530
Br3135     Br  0.67477666  0.62411463  0.82722473    -0.03230
H3136       H  0.66084939  0.57166864  0.78695288     0.08930
H3137       H  0.61800358  0.65885702  0.72348522     0.06950
Br3138     Br  0.60343188  0.60666420  0.68362368    -0.03660
C3139       C  0.79670111  0.50562758  0.62483741    -0.10290
C3140       C  0.81377829  0.98238908  0.64103737     0.05900
C3141       C  0.83947338  0.96987802  0.62560166    -0.04060
C3142       C  0.85064044  0.48423272  0.59799340    -0.08510
C3143       C  0.83625921  0.51061461  0.58473949     0.05020
C3144       C  0.80778556  0.51999741  0.59710602    -0.03530
Br3145     Br  0.78523450  0.55498348  0.58062027    -0.03230
H3146       H  0.77671910  0.51540265  0.63618132     0.08930
H3147       H  0.87175518  0.47568673  0.58785908     0.06950
Br3148     Br  0.86328061  0.93650011  0.64365830    -0.03660
C3149       C  0.98838626  0.61998750  0.52295133    -0.10290
C3150       C  0.98171166  0.59904254  0.49770833     0.05900
C3151       C  0.50316962  0.59646142  0.47248765    -0.04060
C3152       C  0.52993129  0.61495978  0.47295721    -0.08510
C3153       C  0.53648985  0.63529714  0.49868870     0.05020
C3154       C  0.51544603  0.63744490  0.52388415    -0.03530
Br3155     Br  0.52233566  0.66361944  0.56072207    -0.03230
H3156       H  0.97284920  0.62230986  0.54285599     0.08930
H3157       H  0.54609911  0.61284623  0.45358810     0.06950
Br3158     Br  0.49806992  0.56818962  0.43688910    -0.03660
C3159       C  0.50075489  0.51526845  0.52573883    -0.10290
C3160       C  0.97687084  0.49496571  0.51618838     0.05900
C3161       C  0.98299089  0.97153118  0.49334366    -0.04060
C3162       C  0.51243433  0.96850549  0.48145313    -0.08510
C3163       C  0.53639962  0.98828435  0.49168329     0.05020
C3164       C  0.52997466  0.51272889  0.51303887    -0.03530
Br3165     Br  0.55968446  0.54401285  0.52516517    -0.03230
H3166       H  0.49631288  0.53458015  0.54163319     0.08930
H3167       H  0.51687446  0.94934397  0.46535535     0.06950
Br3168     Br  0.95264424  0.94284198  0.47642399    -0.03660
C3169       C  0.85877283  0.78448257  0.63173006    -0.10290
C3170       C  0.87122070  0.81146494  0.61862497     0.05900
C3171       C  0.89296410  0.82835898  0.63757723    -0.04060
C3172       C  0.90572903  0.81561230  0.66602196    -0.08510
C3173       C  0.89704989  0.78603367  0.67615149     0.05020
C3174       C  0.87156847  0.77156346  0.66016446    -0.03530
Br3175     Br  0.85414070  0.73341572  0.67482714    -0.03230
H3176       H  0.84182432  0.77125942  0.61777332     0.08930
H3177       H  0.92433269  0.82777165  0.67861939     0.06950
Br3178     Br  0.90949570  0.86670047  0.62276281    -0.03660
C3179       C  0.83746865  0.90848089  0.49757293    -0.10290
C3180       C  0.85561054  0.89041030  0.47729183     0.05900
C3181       C  0.87044282  0.90547537  0.45140041    -0.04060
C3182       C  0.86944357  0.93765851  0.44869713    -0.08510
C3183       C  0.85353629  0.95595086  0.47068292     0.05020
C3184       C  0.83585651  0.94071683  0.49423501    -0.03530
Br3185     Br  0.80963478  0.96181942  0.52358243    -0.03230
H3186       H  0.82501733  0.89760022  0.51684390     0.08930
H3187       H  0.88242585  0.94856676  0.42982645     0.06950
Br3188     Br  0.89390280  0.88484188  0.41900427    -0.03660
C3189       C  0.87584079  0.68843432  0.56062930    -0.10290
C3190       C  0.85647838  0.70608523  0.54015398     0.05900
C3191       C  0.83732021  0.69021412  0.51716055    -0.04060
C3192       C  0.83960250  0.65802919  0.51380505    -0.08510
C3193       C  0.86040673  0.64066341  0.53300477     0.05020
C3194       C  0.87814739  0.65639250  0.55733887    -0.03530
Br3195     Br  0.90815950  0.63705088  0.58584632    -0.03230
H3196       H  0.89065221  0.69979031  0.57855395     0.08930
H3197       H  0.82536418  0.64658795  0.49544541     0.06950
Br3198     Br  0.80811446  0.71034480  0.48847075    -0.03660
C3199       C  0.85470803  0.73422358  0.41150027    -0.10290
C3200       C  0.83820208  0.75875118  0.42512088     0.05900
C3201       C  0.80853663  0.76554218  0.41206339    -0.04060
C3202       C  0.79825186  0.75101940  0.38340017    -0.08510
C3203       C  0.81726898  0.73036610  0.36686337     0.05020
C3204       C  0.84431498  0.71979316  0.38287184    -0.03530
Br3205     Br  0.87074369  0.68966006  0.36399936    -0.03230
H3206       H  0.87682252  0.72745173  0.42205351     0.08930
H3207       H  0.77724525  0.75927859  0.37152912     0.06950
Br3208     Br  0.78271051  0.79740333  0.42887436    -0.03660
C3209       C  0.98974942  0.74556812  0.53366044    -0.10290
C3210       C  0.97805972  0.74850310  0.50159161     0.05900
C3211       C  0.49856546  0.74908469  0.47602326    -0.04060
C3212       C  0.52994171  0.74588795  0.48268946    -0.08510
C3213       C  0.54150306  0.74200710  0.51465543     0.05020
C3214       C  0.52125498  0.74309783  0.54031047    -0.03530
Br3215     Br  0.53580438  0.74367114  0.58455505    -0.03230
H3216       H  0.97454852  0.74687269  0.55392877     0.08930
H3217       H  0.54515668  0.74497403  0.46240384     0.06950
Br3218     Br  0.98505045  0.75310204  0.43159061    -0.03660
C3219       C  0.50663290  0.83544388  0.51123780    -0.10290
C3220       C  0.97980227  0.85025452  0.52117544     0.05900
C3221       C  0.98150665  0.88093485  0.53194621    -0.04060
C3222       C  0.50949114  0.89703667  0.53057609    -0.08510
C3223       C  0.53614423  0.88288248  0.51858700     0.05020
C3224       C  0.53467730  0.85131130  0.50995256    -0.03530
Br3225     Br  0.57004336  0.82808147  0.49727721    -0.03230
H3226       H  0.50561779  0.81148689  0.50374679     0.08930
H3227       H  0.51011656  0.92100638  0.53811051     0.06950
Br3228     Br  0.94638491  0.90109307  0.54951991    -0.03660
C3229       C  0.66793707  0.01370338  0.37673914    -0.10290
C3230       C  0.69713422  0.00505641  0.36636680     0.05900
C3231       C  0.71567074  0.98649075  0.38690675    -0.04060
C3232       C  0.70306676  0.97228168  0.41391417    -0.08510
C3233       C  0.67203126  0.97692314  0.42135249     0.05020
C3234       C  0.65515706  0.99980637  0.40383624    -0.03530
Br3235     Br  0.61419243  0.01259920  0.41428483    -0.03230
H3236       H  0.65343322  0.02835196  0.36148389     0.08930
H3237       H  0.71715089  0.95631228  0.42801722     0.06950
Br3238     Br  0.75757738  0.47801352  0.37705019    -0.03660
C3239       C  0.64661453  0.57724315  0.13106067    -0.10290
C3240       C  0.62512232  0.55922582  0.11310666     0.05900
C3241       C  0.61611275  0.53074315  0.12608534    -0.04060
C3242       C  0.63302676  0.51807146  0.15198985    -0.08510
C3243       C  0.65619011  0.53491626  0.16880589     0.05020
C3244       C  0.66178933  0.56563258  0.15895258    -0.03530
Br3245     Br  0.69262463  0.59154760  0.17930647    -0.03230
H3246       H  0.65406263  0.59917781  0.12136857     0.08930
H3247       H  0.62810083  0.99446714  0.15862898     0.06950
Br3248     Br  0.58303890  0.00642215  0.10758301    -0.03660
C3249       C  0.72209547  0.86360211  0.26717229    -0.10290
C3250       C  0.73490384  0.89213665  0.27624512     0.05900
C3251       C  0.76464635  0.89290234  0.29031760    -0.04060
C3252       C  0.78316731  0.86633880  0.28995666    -0.08510
C3253       C  0.77157313  0.83838652  0.27700018     0.05020
C3254       C  0.73991886  0.83664727  0.26839078    -0.03530
Br3255     Br  0.71965103  0.79776779  0.26088832    -0.03230
H3256       H  0.69832027  0.86237903  0.25877982     0.08930
H3257       H  0.80677324  0.86777486  0.29908632     0.06950
Br3258     Br  0.77901941  0.92930537  0.31234242    -0.03660
C3259       C  0.64252503  0.87725430  0.22227510    -0.10290
C3260       C  0.62949326  0.90027964  0.24124179     0.05900
C3261       C  0.61207365  0.89156584  0.26809360    -0.04060
C3262       C  0.61255120  0.86103772  0.27843474    -0.08510
C3263       C  0.62810775  0.83815984  0.26122013     0.05020
C3264       C  0.64234736  0.84657230  0.23192274    -0.03530
Br3265     Br  0.66327963  0.81888897  0.20338585    -0.03230
H3266       H  0.65536447  0.88342618  0.20111279     0.08930
H3267       H  0.59968607  0.85508905  0.29959153     0.06950
Br3268     Br  0.58734190  0.91988397  0.29216024    -0.03660
C3269       C  0.96851806  0.98431762  0.12754841    -0.10290
C3270       C  0.94953037  0.00469206  0.14463082     0.05900
C3271       C  0.92185613  0.01483512  0.12935113    -0.04060
C3272       C  0.91166994  0.00116566  0.10026948    -0.08510
C3273       C  0.92883434  0.97789289  0.08548879     0.05020
C3274       C  0.95840004  0.97088580  0.09820277    -0.03530
Br3275     Br  0.98368572  0.93976645  0.07933182    -0.03230
H3276       H  0.98980330  0.47612089  0.13887297     0.08930
H3277       H  0.88922120  0.00741638  0.09013307     0.06950
Br3278     Br  0.89434210  0.04335481  0.14916466    -0.03660
C3279       C  0.83349349  0.53423704  0.24283004    -0.10290
C3280       C  0.84757556  0.51128980  0.22401830     0.05900
C3281       C  0.82843734  0.98906281  0.20832795    -0.04060
C3282       C  0.79672069  0.98932303  0.21311950    -0.08510
C3283       C  0.78280496  0.51146574  0.23295355     0.05020
C3284       C  0.80158179  0.53461162  0.24727486    -0.03530
Br3285     Br  0.78537972  0.56779561  0.27245578    -0.03230
H3286       H  0.84744856  0.55180038  0.25488448     0.08930
H3287       H  0.78289791  0.97132261  0.20163259     0.06950
Br3288     Br  0.84320161  0.95665775  0.18084920    -0.03660
C3289       C  0.54947337  0.52196237  0.25011068    -0.10290
C3290       C  0.53304073  0.53057006  0.27714103     0.05900
C3291       C  0.54918242  0.53727704  0.30649399    -0.04060
C3292       C  0.58145373  0.53435807  0.30839067    -0.08510
C3293       C  0.59759633  0.52421888  0.28144559     0.05020
C3294       C  0.58110944  0.01769617  0.25242277    -0.03530
Br3295     Br  0.59896628  0.99669740  0.21722326    -0.03230
H3296       H  0.53726178  0.01527094  0.22791183     0.08930
H3297       H  0.59376958  0.53904602  0.33105079     0.06950
Br3298     Br  0.52812285  0.55009300  0.34436347    -0.03660
C3299       C  0.91306456  0.56823745  0.35009552    -0.10290
C3300       C  0.90372283  0.53967621  0.33712146     0.05900
C3301       C  0.87778478  0.52484509  0.35003296    -0.04060
C3302       C  0.86452727  0.53646288  0.37810166    -0.08510
C3303       C  0.87717143  0.56238199  0.39401240     0.05020
C3304       C  0.90004267  0.57959718  0.37833336    -0.03530
Br3305     Br  0.91777940  0.61607348  0.39771447    -0.03230
H3306       H  0.93231065  0.58046797  0.33993835     0.08930
H3307       H  0.84698154  0.52289122  0.38968258     0.06950
Br3308     Br  0.86044920  0.48786293  0.33132391    -0.03660
C3309       C  0.02510790  0.85811150  0.22185576    -0.10290
C3310       C  0.53157097  0.84330459  0.25154295     0.05900
C3311       C  0.52507208  0.85919760  0.28050567    -0.04060
C3312       C  0.51187316  0.88864827  0.27927744    -0.08510
C3313       C  0.00436104  0.90291533  0.24968991     0.05020
C3314       C  0.01118659  0.88738680  0.22072306    -0.03530
Br3315     Br  0.00266483  0.90549783  0.17908066    -0.03230
H3316       H  0.03056954  0.84669410  0.19939265     0.08930
H3317       H  0.50643242  0.90007233  0.30175353     0.06950
Br3318     Br  0.53482736  0.84307104  0.32281208    -0.03660
C3319       C  0.92066513  0.87427814  0.27282284    -0.10290
C3320       C  0.89929958  0.89853458  0.27393660     0.05900
C3321       C  0.86883007  0.89357156  0.26282286    -0.04060
C3322       C  0.86019543  0.86517290  0.25002688    -0.08510
C3323       C  0.88141786  0.84094079  0.24866655     0.05020
C3324       C  0.91198078  0.84559353  0.26004284    -0.03530
Br3325     Br  0.94286984  0.81409612  0.25677856    -0.03230
H3326       H  0.94461878  0.87825663  0.27966536     0.08930
H3327       H  0.83633284  0.86167986  0.24242557     0.06950
Br3328     Br  0.83865512  0.92568024  0.26292927    -0.03660
loop_ 
_geom_bond_atom_site_label_1 
_geom_bond_atom_site_label_2 
_geom_bond_distance 
_geom_bond_site_symmetry_2 
_ccdc_geom_bond_type 
O1           Al9   1.931       .  S
O1          C848   1.269       .  A
C2            O3   1.261       .  A
C2          O844   1.268   1_545  A
C2          C784   1.491       .  S
O3           Al5   1.889       .  S
O4           Al5   1.940       .  S
O4            C6   1.270       .  A
Al5          O13   1.977       .  S
Al5          O15   1.895       .  S
Al5         O846   1.775   1_545  S
C6          O851   1.265   1_545  A
C6          C804   1.483       .  S
O7           Al9   1.939       .  S
O7           C17   1.263       .  A
O8          Al18   1.930       .  S
O8           C21   1.267       .  A
Al9          O22   1.914       .  S
Al9          O19   1.901       .  S
Al9          O14   1.775       .  S
O10         Al18   1.843       .  S
O10          C17   1.248       .  A
O11         Al18   1.866       .  S
O11         C852   1.252       .  A
O12         Al18   1.938       .  S
O12         C834   1.268       .  A
O13          C20   1.272       .  A
O14         Al18   1.746       .  S
O14        Al837   1.775       .  S
O15          C16   1.270       .  A
C16         O833   1.269       .  A
C16        C2458   1.468       .  S
C17         C824   1.455       .  S
O19         C838   1.265       .  A
C20         O843   1.252   1_545  A
C20        C1606   1.482       .  S
C21          O22   1.269       .  A
C21         C817   1.482       .  S
O23         Al31   1.911       .  S
O23          C38   1.266       .  A
C24          O34   1.262       .  A
C24         O857   1.267   1_545  A
C24         C797   1.472       .  S
O25         Al27   1.943       .  S
O25         C856   1.267       .  A
O26         Al27   1.863       .  S
O26          C28   1.250       .  A
Al27         O35   1.868       .  S
Al27         O37   1.938       .  S
Al27         O36   1.759       .  S
C28          O41   1.265       .  A
C28         C764   1.467       .  S
O29         Al31   1.888       .  S
O29         C871   1.263       .  A
O30         Al40   1.923       .  S
O30          C43   1.271       .  A
Al31         O44   1.911       .  S
Al31         O41   1.916       .  S
Al31         O36   1.765       .  S
O32         Al40   1.950       .  S
O32          C39   1.270       .  A
O33         Al40   1.974       .  S
O33          C42   1.272       .  A
O34         Al40   1.895       .  S
O35         C874   1.252       .  A
O36        Al872   1.774       .  S
O37          C38   1.265       .  A
C38         C754   1.475       .  S
C39         O861   1.263   1_545  A
C39         C747   1.493       .  S
Al40        O868   1.774   1_545  S
C42         O867   1.252   1_545  A
C42        C1566   1.472       .  S
C43         O876   1.267   1_545  A
C43         C787   1.489       .  S
O44         C875   1.267       .  A
O45         Al53   1.911       .  S
O45          C60   1.267       .  A
C46          O56   1.259       .  A
C46          O47   1.271       .  A
C46         C694   1.496       .  S
O47         Al49   1.940       .  S
O48         Al49   1.870       .  S
O48          C50   1.251       .  A
Al49         O57   1.860       .  S
Al49         O59   1.937       .  S
Al49         O58   1.753       .  S
C50          O63   1.263       .  A
C50         C714   1.464       .  S
O51         Al53   1.895       .  S
O51          C61   1.265       .  A
O52         Al62   1.932       .  S
O52          C65   1.275       .  A
Al53         O66   1.920       .  S
Al53         O63   1.924       .  S
Al53         O58   1.764       .  S
O54         Al62   1.944       .  S
O54          C61   1.271       .  A
O55         Al62   1.978       .  S
O55          C64   1.272       .  A
O56         Al62   1.895       .  S
O57          C64   1.250       .  A
O58         Al62   1.775       .  S
O59          C60   1.267       .  A
C60         C724   1.471       .  S
C61         C704   1.488       .  S
C64         C674   1.477       .  S
C65          O66   1.265       .  A
C65         C684   1.498       .  S
O67         Al75   1.923       .  S
O67          C82   1.266       .  A
C68          O78   1.270       .  A
C68         O901   1.259       .  A
C68         C687   1.496       .  S
O69         Al71   1.899       .  S
O69         C900   1.259   1_545  A
O70         Al71   1.951       .  S
O70          C72   1.273       .  A
Al71         O79   1.982       .  S
Al71         O81   1.927       .  S
Al71         O80   1.771       .  S
C72          O85   1.265       .  A
C72         C647   1.485       .  S
O73         Al75   1.941       .  S
O73          C83   1.264       .  A
O74         Al84   1.955       .  S
O74          C87   1.270       .  A
Al75         O88   1.903       .  S
Al75         O85   1.888       .  S
Al75         O80   1.769       .  S
O76         Al84   1.861   1_565  S
O76          C83   1.244   1_565  A
O77         Al84   1.850       .  S
O77          C86   1.249       .  A
O78        Al916   1.939       .  S
O79          C86   1.274       .  A
O80         Al84   1.747       .  S
O81          C82   1.274       .  A
C82         C697   1.495       .  S
C83         C664   1.472   1_545  S
Al84        O910   1.939       .  S
C86         C807   1.475       .  S
C87          O88   1.269       .  A
C87         C654   1.497       .  S
O89         Al97   1.931       .  S
O89         C104   1.271       .  A
C90         O100   1.270       .  A
C90          O91   1.259       .  A
C90         C597   1.496       .  S
O91         Al93   1.898       .  S
O92         Al93   1.944       .  S
O92          C94   1.271       .  A
Al93        O101   1.965       .  S
Al93        O103   1.910       .  S
Al93        O102   1.771       .  S
C94         O107   1.265       .  A
C94         C617   1.487       .  S
O95         Al97   1.948       .  S
O95         C105   1.263       .  A
O96        Al106   1.963       .  S
O96         C109   1.273       .  A
Al97        O110   1.906       .  S
Al97        O107   1.895       .  S
Al97        O102   1.774       .  S
O98        Al106   1.869       .  S
O98         C105   1.247       .  A
O99        Al106   1.857       .  S
O99         C108   1.252       .  A
O100       Al106   1.940       .  S
O101        C108   1.271       .  A
O102       Al106   1.746       .  S
O103        C104   1.268       .  A
C104        C607   1.495       .  S
C105        C637   1.479       .  S
C108        C584   1.475       .  S
C109        O110   1.267       .  A
C109        C624   1.493       .  S
O111       Al119   1.909       .  S
O111        C126   1.267       .  A
C112        O122   1.262       .  A
C112        O113   1.267       .  A
C112        C604   1.491       .  S
O113       Al115   1.936       .  S
O114       Al115   1.861       .  S
O114        C116   1.248       .  A
Al115       O123   1.862       .  S
Al115       O125   1.944       .  S
Al115       O124   1.752       .  S
C116        O129   1.264       .  A
C116        C577   1.464       .  S
O117       Al119   1.892       .  S
O117        C127   1.263       .  A
O118       Al128   1.927       .  S
O118        C131   1.273       .  A
Al119       O132   1.923       .  S
Al119       O129   1.926       .  S
Al119       O124   1.767       .  S
O120       Al128   1.947       .  S
O120        C127   1.273       .  A
O121       Al128   1.970       .  S
O121        C130   1.271       .  A
O122       Al128   1.894       .  S
O123        C130   1.251       .  A
O124       Al128   1.774       .  S
O125        C126   1.269       .  A
C126        C567   1.490       .  S
C127        C677   1.487       .  S
C130        C554   1.476       .  S
C131        O132   1.266       .  A
C131       C2258   1.498       .  S
O133       Al141   1.907       .  S
O133        C148   1.260       .  A
C134        O144   1.264       .  A
C134        O135   1.260       .  A
C134        C514   1.485       .  S
O135       Al137   1.899       .  S
O136       Al137   1.954   1_554  S
O136        C138   1.275       .  A
Al137       O145   1.978       .  S
Al137       O147   1.925   1_556  S
Al137       O146   1.769   1_556  S
C138        O151   1.263       .  A
C138        C527   1.491       .  S
O139       Al141   1.925       .  S
O139        C149   1.262       .  A
O140       Al150   1.939       .  S
O140        C153   1.267       .  A
Al141       O154   1.913       .  S
Al141       O151   1.884       .  S
Al141       O146   1.771       .  S
O142       Al150   1.875   1_554  S
O142        C149   1.251       .  A
O143       Al150   1.849       .  S
O143        C152   1.251       .  A
O144       Al150   1.923       .  S
O145        C152   1.274       .  A
O146       Al150   1.754   1_554  S
O147        C148   1.271       .  A
C148        C504   1.493       .  S
C149        C537   1.472       .  S
C152        C614   1.475       .  S
C153        O154   1.268   1_556  A
C153        C544   1.474       .  S
O155       Al163   1.900       .  S
O155        C170   1.264   1_556  A
C156        O157   1.273       .  A
C156        O998   1.256       .  A
C156        C507   1.492       .  S
O157       Al991   1.950       .  S
O158       Al159   1.851       .  S
O158        C160   1.239   1_554  A
Al159       O167   1.862       .  S
Al159       O169   1.969       .  S
Al159       O989   1.950       .  S
Al159       O168   1.741       .  S
C160        O173   1.268       .  A
C160        C497   1.473   1_556  S
O161       Al163   1.897       .  S
O161        C171   1.265       .  A
O162       Al172   1.887       .  S
O162        C175   1.270   1_554  A
Al163       O176   1.940       .  S
Al163       O173   1.967       .  S
Al163       O168   1.771   1_556  S
O164       Al172   1.937   1_556  S
O164        C171   1.269       .  A
O165       Al172   1.978       .  S
O165        C174   1.273       .  A
O166       Al172   1.881       .  S
O166        C988   1.256   1_545  A
O167        C174   1.250       .  A
O168       Al172   1.771       .  S
O169        C170   1.273       .  A
C170        C484   1.491       .  S
C171        C477   1.482       .  S
C174        C744   1.476       .  S
C175        O176   1.272       .  A
C175        C517   1.487       .  S
O177       Al185   1.935       .  S
O177        C192   1.270       .  A
C178        O188   1.273       .  A
C178        O179   1.259       .  A
C178        C464   1.497       .  S
O179       Al181   1.891       .  S
O180       Al181   1.943       .  S
O180        C182   1.269       .  A
Al181       O189   1.971       .  S
Al181       O191   1.905       .  S
Al181       O190   1.775       .  S
C182        O195   1.262       .  A
C182        C587   1.482       .  S
O183       Al185   1.940       .  S
O183        C193   1.265       .  A
O184       Al194   1.962       .  S
O184        C197   1.271       .  A
Al185       O198   1.898       .  S
Al185       O195   1.885       .  S
Al185       O190   1.767       .  S
O186       Al194   1.861       .  S
O186        C193   1.247       .  A
O187       Al194   1.862       .  S
O187        C196   1.251       .  A
O188       Al194   1.952       .  S
O189        C196   1.271       .  A
O190       Al194   1.749       .  S
O191        C192   1.271       .  A
C192        C454   1.494       .  S
C193        C717   1.464       .  S
C196        C444   1.475       .  S
C197        O198   1.263       .  A
C197        C657   1.482       .  S
O199       Al207   1.908       .  S
O199        C214   1.267       .  A
C200       O1042   1.259       .  A
C200       O1033   1.268       .  A
C200        C457   1.492   1_565  S
O201       Al203   1.932       .  S
O201       C1032   1.268       .  A
O202       Al203   1.865       .  S
O202        C204   1.248       .  A
Al203       O211   1.855       .  S
Al203       O213   1.938       .  S
Al203       O212   1.752       .  S
C204        O217   1.264       .  A
C204        C667   1.467       .  S
O205       Al207   1.882       .  S
O205        C215   1.261       .  A
O206       Al216   1.926       .  S
O206        C219   1.272       .  A
Al207       O220   1.918       .  S
Al207       O217   1.925       .  S
Al207       O212   1.771       .  S
O208       Al216   1.948       .  S
O208        C215   1.274       .  A
O209       Al216   1.979       .  S
O209        C218   1.273       .  A
O210       Al216   1.896       .  S
O210       C1032   1.259       .  A
O211        C218   1.251       .  A
O212       Al216   1.773       .  S
O213        C214   1.269       .  A
C214        C727   1.488       .  S
C215        C737   1.489       .  S
C218        C434   1.479       .  S
C219        O220   1.264       .  A
C219        C467   1.498       .  S
O221      Al1061   1.933       .  S
O221        C236   1.273       .  A
C222        O223   1.260       .  A
C222       O1064   1.272       .  A
C222        C404   1.499       .  S
O223       Al225   1.897       .  S
O224       Al225   1.949       .  S
O224        C226   1.271       .  A
Al225       O233   1.976       .  S
Al225       O235   1.909       .  S
Al225      O1066   1.774       .  S
C226        O239   1.264       .  A
C226        C424   1.484       .  S
O227       Al229   1.948       .  S
O227        C237   1.266       .  A
O228       Al238   1.955       .  S
O228        C241   1.270       .  A
Al229       O242   1.903       .  S
Al229      O1053   1.933   1_545  S
Al229      O1071   1.896   1_545  S
Al229       O234   1.771   1_545  S
O230       Al238   1.852       .  S
O230        C237   1.244       .  A
O231       Al238   1.861       .  S
O231       C1072   1.251   1_545  A
O232       Al238   1.948   1_565  S
O232       C1054   1.272       .  A
O233        C240   1.272       .  A
O234       Al238   1.747   1_565  S
O234      Al1057   1.774       .  S
O235        C236   1.269       .  A
C236        C417   1.496       .  S
C237        C574   1.469       .  S
O239      Al1061   1.896       .  S
C240       O1063   1.251       .  A
C240        C644   1.480       .  S
C241        O242   1.266       .  A
C241        C627   1.485       .  S
O243       Al251   1.913       .  S
O243        C258   1.267       .  A
C244        O254   1.262       .  A
C244       O1077   1.264       .  A
C244        C414   1.488       .  S
O245       Al247   1.926   1_565  S
O245       C1076   1.264       .  A
O246       Al247   1.873       .  S
O246        C248   1.250       .  A
Al247       O255   1.854       .  S
Al247       O257   1.944       .  S
Al247      O1088   1.751   1_545  S
C248        O261   1.264       .  A
C248        C634   1.476       .  S
O249      Al1083   1.897       .  S
O249        C259   1.266       .  A
O250       Al260   1.925       .  S
O250        C263   1.272       .  A
Al251       O261   1.938       .  S
Al251      O1081   1.897   1_545  S
Al251      O1096   1.928   1_545  S
Al251      O1088   1.768   1_545  S
O252       Al260   1.943       .  S
O252        C259   1.271       .  A
O253       Al260   1.967       .  S
O253        C262   1.271       .  A
O254       Al260   1.900       .  S
O255       C1094   1.253   1_545  A
O256       Al260   1.771       .  S
O256      Al1079   1.751       .  S
O256      Al1083   1.768       .  S
O257        C258   1.268       .  A
C258        C564   1.474       .  S
C259        C437   1.489       .  S
C262       O1087   1.253       .  A
C262        C474   1.473       .  S
C263        O264   1.266       .  A
C263       C2071   1.499   1_455  S
O264      Al1083   1.928       .  S
O265       Al273   1.933       .  S
O265        C280   1.270       .  A
C266        O276   1.273       .  A
C266        O267   1.262       .  A
C266        C384   1.498       .  S
O267       Al269   1.901       .  S
O268       Al269   1.945       .  S
O268        C270   1.271       .  A
Al269       O277   1.980       .  S
Al269       O279   1.920       .  S
Al269       O278   1.775       .  S
C270        O283   1.262       .  A
C270        C447   1.483       .  S
O271       Al273   1.944       .  S
O271        C281   1.266       .  A
O272       Al282   1.950       .  S
O272        C285   1.269       .  A
Al273       O286   1.905       .  S
Al273       O283   1.888       .  S
Al273       O278   1.768       .  S
O274       Al282   1.861       .  S
O274        C281   1.243       .  A
O275       Al282   1.867       .  S
O275        C284   1.249       .  A
O276       Al282   1.948       .  S
O277        C284   1.272       .  A
O278       Al282   1.743       .  S
O279        C280   1.275       .  A
C280       C2058   1.496   1_455  S
C281        C767   1.477       .  S
C284        C524   1.475       .  S
C285        O286   1.265       .  A
C285        C814   1.488       .  S
O287       Al295   1.901       .  S
O287        C302   1.267       .  A
C288        O298   1.259       .  A
C288        O289   1.269       .  A
C288        C397   1.496       .  S
O289       Al291   1.935       .  S
O290       Al291   1.864       .  S
O290        C292   1.248       .  A
Al291       O299   1.854       .  S
Al291       O301   1.949       .  S
Al291       O300   1.753       .  S
C292        O305   1.264       .  A
C292        C827   1.456       .  S
O293       Al295   1.892       .  S
O293        C303   1.263       .  A
O294       Al304   1.928       .  S
O294        C307   1.273       .  A
Al295       O308   1.924       .  S
Al295       O305   1.930       .  S
Al295       O300   1.766       .  S
O296       Al304   1.947       .  S
O296        C303   1.273       .  A
O297       Al304   1.977       .  S
O297        C306   1.272       .  A
O298       Al304   1.895       .  S
O299        C306   1.250       .  A
O300       Al304   1.773       .  S
O301        C302   1.270       .  A
C302        C757   1.488       .  S
C303        C374   1.491       .  S
C306        C707   1.476       .  S
C307        O308   1.265       .  A
C307        C387   1.500       .  S
O309       Al317   1.908       .  S
O309        C324   1.269   1_556  A
C310        O320   1.259       .  A
C310        O311   1.270       .  A
C310        C367   1.490       .  S
O311       Al313   1.940       .  S
O312       Al313   1.867       .  S
O312        C314   1.248   1_554  A
Al313       O321   1.864       .  S
Al313       O323   1.956       .  S
Al313       O322   1.744       .  S
C314        O327   1.261       .  A
C314        C534   1.474       .  S
O315       Al317   1.891       .  S
O315        C325   1.264       .  A
O316       Al326   1.917       .  S
O316        C329   1.271   1_554  A
Al317       O330   1.917       .  S
Al317       O327   1.936       .  S
Al317       O322   1.771   1_556  S
O318       Al326   1.949   1_556  S
O318        C325   1.273       .  A
O319       Al326   1.977       .  S
O319        C328   1.273       .  A
O320       Al326   1.892       .  S
O321        C328   1.251       .  A
O322       Al326   1.773       .  S
O323        C324   1.271       .  A
C324        C487   1.490       .  S
C325        C557   1.484       .  S
C328        C377   1.475       .  S
C329        O330   1.269       .  A
C329        C357   1.491       .  S
O331       Al339   1.870       .  S
O331        C346   1.253       .  A
C332       O1174   1.261       .  A
C332       O1165   1.267       .  A
C332        C354   1.469   1_565  S
O333       Al335   1.919       .  S
O333       C1164   1.267       .  A
O334       Al335   1.909   1_554  S
O334        C336   1.256       .  A
Al335       O343   1.941       .  S
Al335       O345   1.921   1_556  S
Al335       O344   1.818       .  S
C336        O349   1.253       .  A
C336        C777   1.479       .  S
O337       Al339   1.896       .  S
O337        C347   1.247       .  A
O338       Al348   1.906       .  S
O338        C351   1.266       .  A
Al339       O352   1.911       .  S
Al339       O349   1.876       .  S
Al339       O344   1.805   1_554  S
O340       Al348   1.806       .  S
O340        C347   1.238   1_556  A
O341       Al348   1.816       .  S
O341        C350   1.238       .  A
O342       Al348   1.875       .  S
O342       C1164   1.261       .  A
O343        C350   1.258       .  A
O344       Al348   1.795       .  S
O345        C346   1.265       .  A
C346        C364   1.489       .  S
C347        C494   1.443       .  S
C350        C427   1.467       .  S
C351        O352   1.266   1_556  A
C351        C547   1.471       .  S
C353        C354   1.404       .  A
C353        C358   1.403   1_556  A
C353        H360   1.084   1_556  S
C354        C355   1.402       .  A
C355        C356   1.393       .  A
C355       Br362   1.922       .  S
C356        C357   1.412       .  A
C356        H361   1.083       .  S
C357        C358   1.417   1_556  A
C358       Br359   1.921       .  S
C363        C364   1.403       .  A
C363        C368   1.402       .  A
C363        H370   1.084   1_554  S
C364        C365   1.419       .  A
C365        C366   1.397       .  A
C365       Br372   1.924       .  S
C366        C367   1.403       .  A
C366        H371   1.084       .  S
C367        C368   1.419       .  A
C368       Br369   1.919   1_554  S
C373        C374   1.406       .  A
C373        C378   1.401       .  A
C373        H380   1.083       .  S
C374        C375   1.419       .  A
C375        C376   1.402       .  A
C375       Br382   1.923       .  S
C376        C377   1.402       .  A
C376        H381   1.084       .  S
C377        C378   1.408       .  A
C378       Br379   1.916       .  S
C383        C384   1.404       .  A
C383        C388   1.400       .  A
C383        H390   1.084       .  S
C384        C385   1.420       .  A
C385        C386   1.405       .  A
C385       Br392   1.920       .  S
C386        C387   1.406       .  A
C386        H391   1.083       .  S
C387        C388   1.423       .  A
C388       Br389   1.924       .  S
C393        C394   1.405       .  A
C393        C398   1.404       .  A
C393        H400   1.084       .  S
C394       C1944   1.496       .  S
C394        C395   1.421       .  A
C395        C396   1.399       .  A
C395       Br402   1.923       .  S
C396        C397   1.404       .  A
C396        H401   1.084       .  S
C397        C398   1.419       .  A
C398       Br399   1.921       .  S
C403       C1236   1.404       .  A
C403       C1240   1.401       .  A
C403        H410   1.084   1_565  S
C404        C405   1.420       .  A
C404       C1235   1.404       .  A
C405        C406   1.405       .  A
C405       Br412   1.922       .  S
C406        C407   1.405       .  A
C406        H411   1.083       .  S
C407       C1927   1.499       .  S
C407        C408   1.421       .  A
C408       C1235   1.401       .  A
C408      Br1241   1.924       .  S
Br409      C1240   1.924   1_545  S
C413        C414   1.408       .  A
C413        C418   1.403       .  A
C413        H420   1.084       .  S
C414        C415   1.412       .  A
C415        C416   1.399       .  A
C415      Br1254   1.923       .  S
C416        C417   1.410       .  A
C416        H421   1.083       .  S
C417        C418   1.417       .  A
C418       Br419   1.922       .  S
Br422      C1247   1.923       .  S
C423        C424   1.403       .  A
C423        C428   1.403       .  A
C423        H430   1.084       .  S
C424        C425   1.414       .  A
C425        C426   1.402       .  A
C425       Br432   1.922       .  S
C426        C427   1.403       .  A
C426        H431   1.084       .  S
C427        C428   1.411       .  A
C428       Br429   1.919       .  S
C433        C434   1.408       .  A
C433        C438   1.402       .  A
C433        H440   1.084       .  S
C434        C435   1.409       .  A
C435        C436   1.401       .  A
C435      Br1274   1.919       .  S
C436        C437   1.408       .  A
C436       H1273   1.084       .  S
C437        C438   1.413       .  A
C438       Br439   1.921       .  S
H441       C1268   1.084       .  S
Br442      C1267   1.919       .  S
C443        C444   1.402       .  A
C443        C448   1.400       .  A
C443        H450   1.084       .  S
C444        C445   1.412       .  A
C445        C446   1.399       .  A
C445       Br452   1.921       .  S
C446        C447   1.403       .  A
C446        H451   1.084       .  S
C447        C448   1.416       .  A
C448       Br449   1.923       .  S
C453        C454   1.405       .  A
C453        C458   1.400       .  A
C453        H460   1.083       .  S
C454        C455   1.419       .  A
C455        C456   1.400       .  A
C455       Br462   1.921       .  S
C456        C457   1.405       .  A
C456        H461   1.084       .  S
C457        C458   1.417       .  A
C458       Br459   1.919       .  S
C463        C464   1.403       .  A
C463        C468   1.401       .  A
C463        H470   1.084       .  S
C464        C465   1.421       .  A
C465        C466   1.403       .  A
C465       Br472   1.920       .  S
C466        C467   1.404       .  A
C466        H471   1.084       .  S
C467        C468   1.423       .  A
C468       Br469   1.924       .  S
C473        C478   1.399       .  A
C473       C1306   1.407   1_545  A
C473       H1312   1.084       .  S
C474       C1305   1.407       .  A
C474       C1307   1.408       .  A
C475        C476   1.400       .  A
C475       C1306   1.408       .  A
C475       Br482   1.919       .  S
C476        C477   1.407   1_565  A
C476        H481   1.084       .  S
C477        C478   1.412       .  A
C478       Br479   1.921       .  S
H480       C1305   1.084       .  S
C483        C484   1.406       .  A
C483        C488   1.409       .  A
C483        H490   1.083       .  S
C484        C485   1.416   1_554  A
C485        C486   1.399       .  A
C485       Br492   1.921       .  S
C486        C487   1.402   1_556  A
C486        H491   1.084       .  S
C487        C488   1.414       .  A
C488       Br489   1.916       .  S
C493        C494   1.395       .  A
C493        C498   1.392       .  A
C493        H500   1.085       .  S
C494       C1327   1.403       .  A
C495        C496   1.391   1_554  A
C495       C1326   1.403   1_545  A
C495       Br502   1.919       .  S
C496        C497   1.404   1_556  A
C496        H501   1.080       .  S
C497       C1330   1.420   1_545  A
C498       C1329   1.420       .  A
C498       Br499   1.923       .  S
C503        C504   1.402       .  A
C503        C508   1.401       .  A
C503        H510   1.084   1_554  S
C504        C505   1.423       .  A
C505        C506   1.399       .  A
C505       Br512   1.925       .  S
C506        C507   1.401       .  A
C506        H511   1.084       .  S
C507        C508   1.420       .  A
C508       Br509   1.920   1_554  S
C513        C514   1.406       .  A
C513        C518   1.401       .  A
C513        H520   1.084       .  S
C514        C515   1.413   1_556  A
C515        C516   1.394       .  A
C515       Br522   1.912       .  S
C516        C517   1.403   1_554  A
C516        H521   1.084       .  S
C517        C518   1.416       .  A
C518       Br519   1.922       .  S
C523        C524   1.401       .  A
C523        C528   1.400       .  A
C523        H530   1.084       .  S
C524        C525   1.410       .  A
C525        C526   1.402       .  A
C525       Br532   1.918       .  S
C526        C527   1.406       .  A
C526        H531   1.083       .  S
C527        C528   1.420       .  A
C528       Br529   1.924       .  S
C533        C534   1.409   1_554  A
C533        C538   1.387       .  A
C533        H540   1.084       .  S
C534        C535   1.410       .  A
C535        C536   1.392       .  A
C535       Br542   1.923       .  S
C536        C537   1.409   1_556  A
C536        H541   1.084       .  S
C537        C538   1.407       .  A
C538       Br539   1.924       .  S
C543        C544   1.403       .  A
C543        C548   1.398       .  A
C543        H550   1.080       .  S
C544        C545   1.406       .  A
C545        C546   1.404       .  A
C545       Br552   1.920       .  S
C546        C547   1.406       .  A
C546        H551   1.084       .  S
C547        C548   1.405       .  A
C548       Br549   1.919       .  S
C553        C554   1.403       .  A
C553        C558   1.401       .  A
C553        H560   1.084       .  S
C554        C555   1.412       .  A
C555        C556   1.400       .  A
C555       Br562   1.920       .  S
C556        C557   1.403       .  A
C556        H561   1.084       .  S
C557        C558   1.415       .  A
C558       Br559   1.923       .  S
C563        C564   1.399       .  A
C563        C568   1.398       .  A
C563        H570   1.082       .  S
C564       C2229   1.403       .  A
C565        C566   1.405       .  A
C565       C2228   1.403       .  A
C565       Br572   1.919       .  S
C566        C567   1.412       .  A
C566        H571   1.084       .  S
C567       C2232   1.413       .  A
C568       C2231   1.413   1_455  A
C568       Br569   1.918       .  S
C573        C574   1.404       .  A
C573        C578   1.393       .  A
C573        H580   1.082       .  S
C574        C575   1.415       .  A
C575        C576   1.388       .  A
C575       Br582   1.922       .  S
C576        C577   1.400       .  A
C576        H581   1.084       .  S
C577        C578   1.410       .  A
C578       Br579   1.923       .  S
C583        C584   1.408       .  A
C583        C588   1.400       .  A
C583        H590   1.084       .  S
C584        C585   1.409       .  A
C585        C586   1.398       .  A
C585       Br592   1.920       .  S
C586        C587   1.407       .  A
C586        H591   1.084       .  S
C587        C588   1.411       .  A
C588       Br589   1.921       .  S
C593        C594   1.405       .  A
C593        C598   1.404       .  A
C593        H600   1.083       .  S
C594       C1795   1.498   1_455  S
C594        C595   1.422       .  A
C595        C596   1.400       .  A
C595       Br602   1.924       .  S
C596        C597   1.403       .  A
C596        H601   1.084       .  S
C597        C598   1.419       .  A
C598       Br599   1.919       .  S
C603        C604   1.409       .  A
C603        C608   1.402       .  A
C603        H610   1.084       .  S
C604        C605   1.413       .  A
C605        C606   1.400       .  A
C605       Br612   1.922       .  S
C606        C607   1.410       .  A
C606        H611   1.083       .  S
C607        C608   1.416       .  A
C608       Br609   1.922       .  S
C613        C614   1.408       .  A
C613        C618   1.402       .  A
C613        H620   1.084       .  S
C614        C615   1.408       .  A
C615        C616   1.400       .  A
C615       Br622   1.918       .  S
C616        C617   1.407       .  A
C616        H621   1.084       .  S
C617        C618   1.412       .  A
C618       Br619   1.920       .  S
C623        C624   1.410       .  A
C623        C628   1.409       .  A
C623        H630   1.084       .  S
C624        C625   1.417       .  A
C625        C626   1.399       .  A
C625       Br632   1.922       .  S
C626        C627   1.401       .  A
C626        H631   1.084       .  S
C627        C628   1.409       .  A
C628       Br629   1.917       .  S
C633        C634   1.411       .  A
C633        C638   1.393       .  A
C633        H640   1.084       .  S
C634        C635   1.406       .  A
C635        C636   1.390       .  A
C635       Br642   1.922       .  S
C636        C637   1.411       .  A
C636        H641   1.083       .  S
C637        C638   1.407       .  A
C638       Br639   1.920       .  S
C643        C648   1.402       .  A
C643       C1476   1.409   1_545  A
C643        H650   1.084       .  S
C644        C645   1.409       .  A
C644       C1475   1.409       .  A
C645       C1478   1.399       .  A
C645       Br652   1.918       .  S
C646        C647   1.407   1_565  A
C646       C1477   1.399       .  A
C646        H651   1.084       .  S
C647        C648   1.411       .  A
C648       Br649   1.920       .  S
C653        C654   1.405       .  A
C653       C2322   1.395       .  A
C653        H660   1.083       .  S
C654       C2319   1.422       .  A
C655        C656   1.410       .  A
C655       C2318   1.422   1_455  A
C655       Br662   1.920   1_455  S
C656        C657   1.402       .  A
C656        H661   1.084       .  S
C657        C658   1.408       .  A
C658       C2317   1.395   1_455  A
C658       Br659   1.913       .  S
C663        C668   1.391       .  A
C663       C2328   1.406   1_445  A
C663        H670   1.084   1_455  S
C664       C2327   1.406   1_565  A
C664       C1497   1.416       .  A
C665       C1496   1.416       .  A
C665       C2330   1.389       .  A
C665       Br672   1.925       .  S
C666        C667   1.402       .  A
C666       C2329   1.389   1_455  A
C666        H671   1.084       .  S
C667       C1500   1.411       .  A
C668       C1499   1.411   1_545  A
C668       Br669   1.925       .  S
C673        C674   1.403       .  A
C673        C678   1.403       .  A
C673        H680   1.084       .  S
C674        C675   1.412       .  A
C675        C676   1.400       .  A
C675       Br682   1.916       .  S
C676        C677   1.403       .  A
C676        H681   1.084       .  S
C677        C678   1.417       .  A
C678       Br679   1.922       .  S
C683        C684   1.405       .  A
C683        C688   1.405       .  A
C683        H690   1.083       .  S
C684        C685   1.423       .  A
C685        C686   1.399       .  A
C685       Br692   1.925       .  S
C686        C687   1.402       .  A
C686        H691   1.084       .  S
C687        C688   1.420       .  A
C688       Br689   1.919       .  S
C693        C694   1.403       .  A
C693        C698   1.398       .  A
C693        H700   1.084       .  S
C694        C695   1.421       .  A
C695        C696   1.404       .  A
C695       Br702   1.922       .  S
C696        C697   1.405       .  A
C696        H701   1.084       .  S
C697        C698   1.421       .  A
C698       Br699   1.925       .  S
C703        C704   1.408       .  A
C703        C708   1.400       .  A
C703        H710   1.084       .  S
C704        C705   1.413       .  A
C705        C706   1.402       .  A
C705       Br712   1.921       .  S
C706        C707   1.408       .  A
C706        H711   1.084       .  S
C707        C708   1.408       .  A
C708       Br709   1.918       .  S
C713        C714   1.411       .  A
C713       C2382   1.391       .  A
C713        H720   1.083       .  S
C714       C2379   1.401       .  A
C715        C716   1.389   1_655  A
C715       C2378   1.401       .  A
C715      Br2386   1.920       .  S
C716        C717   1.410       .  A
C716        H721   1.083       .  S
C717        C718   1.397       .  A
C718       C2377   1.391   1_455  A
C718       Br719   1.917       .  S
Br722      C2379   1.920       .  S
C723        C728   1.399       .  A
C723       C2388   1.402   1_455  A
C723        H730   1.083       .  S
C724        C725   1.402       .  A
C724       C2387   1.402       .  A
C725       C2390   1.402       .  A
C725       Br732   1.918       .  S
C726        C727   1.412       .  A
C726       C2389   1.402   1_455  A
C726        H731   1.083       .  S
C727        C728   1.413       .  A
C728       Br729   1.922       .  S
C733        C734   1.401       .  A
C733        C738   1.400       .  A
C733        H740   1.084       .  S
C734        C874   1.472       .  S
C734        C735   1.407       .  A
C735        C736   1.400       .  A
C735      Br1574   1.911       .  S
C736        C737   1.405       .  A
C736        H741   1.083       .  S
C737        C738   1.420       .  A
C738       Br739   1.924       .  S
Br742      C1567   1.911       .  S
C743        C744   1.409       .  A
C743        C748   1.405       .  A
C743        H750   1.084       .  S
C744        C745   1.405       .  A
C745        C746   1.394       .  A
C745      Br1584   1.920       .  S
C746        C747   1.408       .  A
C746       H1583   1.081   1_545  S
C747        C748   1.415       .  A
C748       Br749   1.920       .  S
H751       C1578   1.081       .  S
Br752      C1577   1.920       .  S
C753        C754   1.401       .  A
C753        C758   1.402       .  A
C753        H760   1.080       .  S
C754        C755   1.401       .  A
C755        C756   1.405       .  A
C755       Br762   1.914       .  S
C756        C757   1.409       .  A
C756        H761   1.083       .  S
C757        C758   1.411       .  A
C758       Br759   1.919       .  S
C763        C764   1.398       .  A
C763        C768   1.388       .  A
C763        H770   1.084       .  S
C764        C765   1.412       .  A
C765        C766   1.390       .  A
C765       Br772   1.926       .  S
C766        C767   1.404       .  A
C766        H771   1.082       .  S
C767        C768   1.423       .  A
C768       Br769   1.927       .  S
C773        C774   1.411       .  A
C773        C778   1.403       .  A
C773       H1612   1.084       .  S
C774        C852   1.482       .  S
C774        C775   1.412       .  A
C775        C776   1.399       .  A
C775       Br782   1.918       .  S
C776        C777   1.404       .  A
C776        H781   1.084       .  S
C777        C778   1.406       .  A
C778       Br779   1.918       .  S
H780       C1605   1.084       .  S
C783        C784   1.412       .  A
C783        C788   1.403       .  A
C783        H790   1.083       .  S
C784       C1617   1.415   1_545  A
C785        C786   1.397       .  A
C785       C1616   1.415       .  A
C785       Br792   1.926       .  S
C786       C1619   1.409       .  A
C786        H791   1.084       .  S
C787        C788   1.410       .  A
C787       C1618   1.409   1_545  A
C788       Br789   1.919       .  S
C793        C794   1.393       .  A
C793       C1630   1.386       .  A
C793       H1632   1.085       .  S
C794       C1680   1.468   1_455  S
C794        C795   1.413       .  A
C795        C796   1.407       .  A
C795       Br802   1.917       .  S
C796        C797   1.403       .  A
C796        H801   1.084       .  S
C797       C1630   1.407       .  A
C798       C1625   1.386       .  A
C798       C1629   1.407       .  A
C798       Br799   1.899       .  S
H800       C1625   1.085       .  S
C803        C804   1.402       .  A
C803        C808   1.400       .  A
C803        H810   1.084       .  S
C804        C805   1.414       .  A
C805        C806   1.403       .  A
C805       Br812   1.921   1_545  S
C806        C807   1.403       .  A
C806        H811   1.084       .  S
C807        C808   1.413       .  A
C808       Br809   1.920       .  S
C813        C818   1.406       .  A
C813       C2478   1.407       .  A
C813        H820   1.084       .  S
C814        C815   1.416       .  A
C814       C2477   1.407       .  A
C815        C816   1.399       .  A
C815       Br822   1.920       .  S
C816       C2481   1.401       .  A
C816        H821   1.084       .  S
C817        C818   1.411       .  A
C817       C2480   1.401       .  A
C818       Br819   1.919       .  S
C823        C824   1.404       .  A
C823        C828   1.396       .  A
C823        H830   1.083       .  S
C824        C825   1.404       .  A
C825        C826   1.385       .  A
C825       Br832   1.912       .  S
C826        C827   1.400       .  A
C826        H831   1.084       .  S
C827        C828   1.409       .  A
C828       Br829   1.921       .  S
O833       Al841   1.931   1_545  S
C834        O835   1.261       .  A
C834       C1616   1.491       .  S
O835       Al837   1.889       .  S
O836       Al837   1.940       .  S
O836        C838   1.270       .  A
Al837       O845   1.977       .  S
Al837       O847   1.895       .  S
C838       C1636   1.483       .  S
O839       Al841   1.939       .  S
O839        C849   1.263       .  A
O840       Al850   1.930       .  S
O840        C853   1.267       .  A
Al841       O854   1.914       .  S
Al841       O851   1.901       .  S
Al841       O846   1.775       .  S
O842       Al850   1.843       .  S
O842        C849   1.248       .  A
O843       Al850   1.866       .  S
O844       Al850   1.938       .  S
O845        C852   1.272       .  A
O846       Al850   1.746       .  S
O847        C848   1.270       .  A
C848       C3290   1.468       .  S
C849       C1656   1.455       .  S
C853        O854   1.269       .  A
C853       C1649   1.482       .  S
O855       Al863   1.911       .  S
O855        C870   1.266       .  A
C856        O866   1.262       .  A
C856       C1629   1.472       .  S
O857       Al859   1.943       .  S
O858       Al859   1.863       .  S
O858        C860   1.250       .  A
Al859       O867   1.868       .  S
Al859       O869   1.938       .  S
Al859       O868   1.759       .  S
C860        O873   1.265       .  A
C860       C1596   1.467       .  S
O861       Al863   1.888       .  S
O862       Al872   1.923       .  S
O862        C875   1.271       .  A
Al863       O876   1.911       .  S
Al863       O873   1.916       .  S
Al863       O868   1.765       .  S
O864       Al872   1.950       .  S
O864        C871   1.270       .  A
O865       Al872   1.974       .  S
O865        C874   1.272       .  A
O866       Al872   1.895       .  S
O869        C870   1.265       .  A
C870       C1586   1.475       .  S
C871       C1579   1.493       .  S
C875       C1619   1.489       .  S
O877       Al885   1.911       .  S
O877        C892   1.267       .  A
C878        O888   1.259       .  A
C878        O879   1.271       .  A
C878       C1526   1.496       .  S
O879       Al881   1.940       .  S
O880       Al881   1.870       .  S
O880        C882   1.251       .  A
Al881       O889   1.860       .  S
Al881       O891   1.937       .  S
Al881       O890   1.753       .  S
C882        O895   1.263       .  A
C882       C1546   1.464       .  S
O883       Al885   1.895       .  S
O883        C893   1.265       .  A
O884       Al894   1.932       .  S
O884        C897   1.275       .  A
Al885       O898   1.920       .  S
Al885       O895   1.924       .  S
Al885       O890   1.764       .  S
O886       Al894   1.944       .  S
O886        C893   1.271       .  A
O887       Al894   1.978       .  S
O887        C896   1.272       .  A
O888       Al894   1.895       .  S
O889        C896   1.250       .  A
O890       Al894   1.775       .  S
O891        C892   1.267       .  A
C892       C1556   1.471       .  S
C893       C1536   1.488       .  S
C896       C1506   1.477       .  S
C897        O898   1.265       .  A
C897       C1516   1.498       .  S
O899       Al907   1.923       .  S
O899        C914   1.266       .  A
C900        O910   1.270   1_565  A
C900       C1519   1.496       .  S
O901       Al903   1.899       .  S
O902       Al903   1.951       .  S
O902        C904   1.273       .  A
Al903       O911   1.982       .  S
Al903       O913   1.927       .  S
Al903       O912   1.771       .  S
C904        O917   1.265       .  A
C904       C1479   1.485       .  S
O905       Al907   1.941       .  S
O905        C915   1.264       .  A
O906       Al916   1.955       .  S
O906        C919   1.270       .  A
Al907       O920   1.903       .  S
Al907       O917   1.888       .  S
Al907       O912   1.769       .  S
O908       Al916   1.861       .  S
O908        C915   1.244       .  A
O909       Al916   1.850       .  S
O909        C918   1.249       .  A
O911        C918   1.274       .  A
O912       Al916   1.747       .  S
O913        C914   1.274       .  A
C914       C1529   1.495       .  S
C915       C1496   1.472       .  S
C918       C1639   1.475       .  S
C919        O920   1.269       .  A
C919       C1486   1.497       .  S
O921       Al929   1.931       .  S
O921        C936   1.271       .  A
C922        O932   1.270       .  A
C922        O923   1.259       .  A
C922       C1429   1.496       .  S
O923       Al925   1.898       .  S
O924       Al925   1.944       .  S
O924        C926   1.271       .  A
Al925       O933   1.965       .  S
Al925       O935   1.910       .  S
Al925       O934   1.771       .  S
C926        O939   1.265       .  A
C926       C1449   1.487       .  S
O927       Al929   1.948       .  S
O927        C937   1.263       .  A
O928       Al938   1.963       .  S
O928        C941   1.273       .  A
Al929       O942   1.906       .  S
Al929       O939   1.895       .  S
Al929       O934   1.774       .  S
O930       Al938   1.869       .  S
O930        C937   1.247       .  A
O931       Al938   1.857       .  S
O931        C940   1.252       .  A
O932       Al938   1.940       .  S
O933        C940   1.271       .  A
O934       Al938   1.746       .  S
O935        C936   1.268       .  A
C936       C1439   1.495       .  S
C937       C1469   1.479       .  S
C940       C1416   1.475       .  S
C941        O942   1.267       .  A
C941       C1456   1.493       .  S
O943       Al951   1.909       .  S
O943        C958   1.267       .  A
C944        O954   1.262       .  A
C944        O945   1.267       .  A
C944       C1436   1.491       .  S
O945       Al947   1.936       .  S
O946       Al947   1.861       .  S
O946        C948   1.248       .  A
Al947       O955   1.862       .  S
Al947       O957   1.944       .  S
Al947       O956   1.752       .  S
C948        O961   1.264       .  A
C948       C1409   1.464       .  S
O949       Al951   1.892       .  S
O949        C959   1.263       .  A
O950       Al960   1.927       .  S
O950        C963   1.273       .  A
Al951       O964   1.923       .  S
Al951       O961   1.926       .  S
Al951       O956   1.767       .  S
O952       Al960   1.947       .  S
O952        C959   1.273       .  A
O953       Al960   1.970       .  S
O953        C962   1.271       .  A
O954       Al960   1.894       .  S
O955        C962   1.251       .  A
O956       Al960   1.774       .  S
O957        C958   1.269       .  A
C958       C1399   1.490       .  S
C959       C1509   1.487       .  S
C962       C1386   1.476       .  S
C963        O964   1.266       .  A
C963       C3090   1.498       .  S
O965       Al973   1.907       .  S
O965        C980   1.260       .  A
C966        O976   1.264       .  A
C966        O967   1.260       .  A
C966       C1346   1.485       .  S
O967       Al969   1.899       .  S
O968       Al969   1.954   1_554  S
O968        C970   1.275       .  A
Al969       O977   1.978       .  S
Al969       O979   1.925   1_556  S
Al969       O978   1.769   1_556  S
C970        O983   1.263       .  A
C970       C1359   1.491       .  S
O971       Al973   1.925       .  S
O971        C981   1.262       .  A
O972       Al982   1.939       .  S
O972        C985   1.267       .  A
Al973       O986   1.913       .  S
Al973       O983   1.884       .  S
Al973       O978   1.771       .  S
O974       Al982   1.875   1_554  S
O974        C981   1.251       .  A
O975       Al982   1.849       .  S
O975        C984   1.251       .  A
O976       Al982   1.923       .  S
O977        C984   1.274       .  A
O978       Al982   1.754   1_554  S
O979        C980   1.271       .  A
C980       C1336   1.493       .  S
C981       C1369   1.472       .  S
C984       C1446   1.475       .  S
C985        O986   1.268   1_556  A
C985       C1376   1.474       .  S
O987       Al995   1.900       .  S
O987       C1002   1.264   1_556  A
C988        O989   1.273   1_565  A
C988       C1339   1.492       .  S
O990       Al991   1.851       .  S
O990        C992   1.239   1_554  A
Al991       O999   1.862       .  S
Al991      O1001   1.969       .  S
Al991      O1000   1.741       .  S
C992       O1005   1.268       .  A
C992       C1329   1.473   1_556  S
O993       Al995   1.897       .  S
O993       C1003   1.265       .  A
O994      Al1004   1.887       .  S
O994       C1007   1.270   1_554  A
Al995      O1008   1.940       .  S
Al995      O1005   1.967       .  S
Al995      O1000   1.771   1_556  S
O996      Al1004   1.937   1_556  S
O996       C1003   1.269       .  A
O997      Al1004   1.978       .  S
O997       C1006   1.273       .  A
O998      Al1004   1.881       .  S
O999       C1006   1.250       .  A
O1000     Al1004   1.771       .  S
O1001      C1002   1.273       .  A
C1002      C1316   1.491       .  S
C1003      C1309   1.482       .  S
C1006      C1576   1.476       .  S
C1007      O1008   1.272       .  A
C1007      C1349   1.487       .  S
O1009     Al1017   1.935       .  S
O1009      C1024   1.270       .  A
C1010      O1020   1.273       .  A
C1010      O1011   1.259       .  A
C1010      C1296   1.497       .  S
O1011     Al1013   1.891       .  S
O1012     Al1013   1.943       .  S
O1012      C1014   1.269       .  A
Al1013     O1021   1.971       .  S
Al1013     O1023   1.905       .  S
Al1013     O1022   1.775       .  S
C1014      O1027   1.262       .  A
C1014      C1419   1.482       .  S
O1015     Al1017   1.940       .  S
O1015      C1025   1.265       .  A
O1016     Al1026   1.962       .  S
O1016      C1029   1.271       .  A
Al1017     O1030   1.898       .  S
Al1017     O1027   1.885       .  S
Al1017     O1022   1.767       .  S
O1018     Al1026   1.861       .  S
O1018      C1025   1.247       .  A
O1019     Al1026   1.862       .  S
O1019      C1028   1.251       .  A
O1020     Al1026   1.952       .  S
O1021      C1028   1.271       .  A
O1022     Al1026   1.749       .  S
O1023      C1024   1.271       .  A
C1024      C1286   1.494       .  S
C1025      C1549   1.464       .  S
C1028      C1276   1.475       .  S
C1029      O1030   1.263       .  A
C1029      C1489   1.482       .  S
O1031     Al1039   1.908       .  S
O1031      C1046   1.267       .  A
C1032      C1289   1.492       .  S
O1033     Al1035   1.932       .  S
O1034     Al1035   1.865       .  S
O1034      C1036   1.248       .  A
Al1035     O1043   1.855       .  S
Al1035     O1045   1.938       .  S
Al1035     O1044   1.752       .  S
C1036      O1049   1.264       .  A
C1036      C1499   1.467       .  S
O1037     Al1039   1.882       .  S
O1037      C1047   1.261       .  A
O1038     Al1048   1.926       .  S
O1038      C1051   1.272       .  A
Al1039     O1052   1.918       .  S
Al1039     O1049   1.925       .  S
Al1039     O1044   1.771       .  S
O1040     Al1048   1.948       .  S
O1040      C1047   1.274       .  A
O1041     Al1048   1.979       .  S
O1041      C1050   1.273       .  A
O1042     Al1048   1.896       .  S
O1043      C1050   1.251       .  A
O1044     Al1048   1.773       .  S
O1045      C1046   1.269       .  A
C1046      C1559   1.488       .  S
C1047      C1569   1.489       .  S
C1050      C1266   1.479       .  S
C1051      O1052   1.264       .  A
C1051      C1299   1.498       .  S
O1053      C1068   1.273       .  A
C1054      O1055   1.260       .  A
C1054      C1236   1.499       .  S
O1055     Al1057   1.897       .  S
O1056     Al1057   1.949       .  S
O1056      C1058   1.271       .  A
Al1057     O1065   1.976       .  S
Al1057     O1067   1.909       .  S
C1058      O1071   1.264       .  A
C1058      C1256   1.484       .  S
O1059     Al1061   1.948       .  S
O1059      C1069   1.266       .  A
O1060     Al1070   1.955       .  S
O1060      C1073   1.270       .  A
Al1061     O1074   1.903       .  S
Al1061     O1066   1.771       .  S
O1062     Al1070   1.852       .  S
O1062      C1069   1.244       .  A
O1063     Al1070   1.861       .  S
O1064     Al1070   1.948       .  S
O1065      C1072   1.272       .  A
O1066     Al1070   1.747       .  S
O1067      C1068   1.269       .  A
C1068      C1249   1.496       .  S
C1069      C1406   1.469       .  S
C1072      C1476   1.480       .  S
C1073      O1074   1.266       .  A
C1073      C1459   1.485       .  S
O1075     Al1083   1.913       .  S
O1075      C1090   1.267       .  A
C1076      O1086   1.262       .  A
C1076      C1246   1.488       .  S
O1077     Al1079   1.926       .  S
O1078     Al1079   1.873       .  S
O1078      C1080   1.250       .  A
Al1079     O1087   1.854       .  S
Al1079     O1089   1.944       .  S
C1080      O1093   1.264       .  A
C1080      C1466   1.476       .  S
O1081      C1091   1.266       .  A
O1082     Al1092   1.925       .  S
O1082      C1095   1.272       .  A
Al1083     O1093   1.938       .  S
O1084     Al1092   1.943       .  S
O1084      C1091   1.271       .  A
O1085     Al1092   1.967       .  S
O1085      C1094   1.271       .  A
O1086     Al1092   1.900       .  S
O1088     Al1092   1.771       .  S
O1089      C1090   1.268       .  A
C1090      C1396   1.474       .  S
C1091      C1269   1.489       .  S
C1094      C1306   1.473       .  S
C1095      O1096   1.266       .  A
C1095      C2903   1.499   1_455  S
O1097     Al1105   1.933       .  S
O1097      C1112   1.270       .  A
C1098      O1108   1.273       .  A
C1098      O1099   1.262       .  A
C1098      C1216   1.498       .  S
O1099     Al1101   1.901       .  S
O1100     Al1101   1.945       .  S
O1100      C1102   1.271       .  A
Al1101     O1109   1.980       .  S
Al1101     O1111   1.920       .  S
Al1101     O1110   1.775       .  S
C1102      O1115   1.262       .  A
C1102      C1279   1.483       .  S
O1103     Al1105   1.944       .  S
O1103      C1113   1.266       .  A
O1104     Al1114   1.950       .  S
O1104      C1117   1.269       .  A
Al1105     O1118   1.905       .  S
Al1105     O1115   1.888       .  S
Al1105     O1110   1.768       .  S
O1106     Al1114   1.861       .  S
O1106      C1113   1.243       .  A
O1107     Al1114   1.867       .  S
O1107      C1116   1.249       .  A
O1108     Al1114   1.948       .  S
O1109      C1116   1.272       .  A
O1110     Al1114   1.743       .  S
O1111      C1112   1.275       .  A
C1112      C2890   1.496   1_455  S
C1113      C1599   1.477       .  S
C1116      C1356   1.475       .  S
C1117      O1118   1.265       .  A
C1117      C1646   1.488       .  S
O1119     Al1127   1.901       .  S
O1119      C1134   1.267       .  A
C1120      O1130   1.259       .  A
C1120      O1121   1.269       .  A
C1120      C1229   1.496       .  S
O1121     Al1123   1.935       .  S
O1122     Al1123   1.864       .  S
O1122      C1124   1.248       .  A
Al1123     O1131   1.854       .  S
Al1123     O1133   1.949       .  S
Al1123     O1132   1.753       .  S
C1124      O1137   1.264       .  A
C1124      C1659   1.456       .  S
O1125     Al1127   1.892       .  S
O1125      C1135   1.263       .  A
O1126     Al1136   1.928       .  S
O1126      C1139   1.273       .  A
Al1127     O1140   1.924       .  S
Al1127     O1137   1.930       .  S
Al1127     O1132   1.766       .  S
O1128     Al1136   1.947       .  S
O1128      C1135   1.273       .  A
O1129     Al1136   1.977       .  S
O1129      C1138   1.272       .  A
O1130     Al1136   1.895       .  S
O1131      C1138   1.250       .  A
O1132     Al1136   1.773       .  S
O1133      C1134   1.270       .  A
C1134      C1589   1.488       .  S
C1135      C1206   1.491       .  S
C1138      C1539   1.476       .  S
C1139      O1140   1.265       .  A
C1139      C1219   1.500       .  S
O1141     Al1149   1.908       .  S
O1141      C1156   1.269   1_556  A
C1142      O1152   1.259       .  A
C1142      O1143   1.270       .  A
C1142      C1199   1.490       .  S
O1143     Al1145   1.940       .  S
O1144     Al1145   1.867       .  S
O1144      C1146   1.248   1_554  A
Al1145     O1153   1.864       .  S
Al1145     O1155   1.956       .  S
Al1145     O1154   1.744       .  S
C1146      O1159   1.261       .  A
C1146      C1366   1.474       .  S
O1147     Al1149   1.891       .  S
O1147      C1157   1.264       .  A
O1148     Al1158   1.917       .  S
O1148      C1161   1.271   1_554  A
Al1149     O1162   1.917       .  S
Al1149     O1159   1.936       .  S
Al1149     O1154   1.771   1_556  S
O1150     Al1158   1.949   1_556  S
O1150      C1157   1.273       .  A
O1151     Al1158   1.977       .  S
O1151      C1160   1.273       .  A
O1152     Al1158   1.892       .  S
O1153      C1160   1.251       .  A
O1154     Al1158   1.773       .  S
O1155      C1156   1.271       .  A
C1156      C1319   1.490       .  S
C1157      C1389   1.484       .  S
C1160      C1209   1.475       .  S
C1161      O1162   1.269       .  A
C1161      C1189   1.491       .  S
O1163     Al1171   1.870       .  S
O1163      C1178   1.253       .  A
C1164      C1186   1.469       .  S
O1165     Al1167   1.919       .  S
O1166     Al1167   1.909   1_554  S
O1166      C1168   1.256       .  A
Al1167     O1175   1.941       .  S
Al1167     O1177   1.921   1_556  S
Al1167     O1176   1.818       .  S
C1168      O1181   1.253       .  A
C1168      C1609   1.479       .  S
O1169     Al1171   1.896       .  S
O1169      C1179   1.247       .  A
O1170     Al1180   1.906       .  S
O1170      C1183   1.266       .  A
Al1171     O1184   1.911       .  S
Al1171     O1181   1.876       .  S
Al1171     O1176   1.805   1_554  S
O1172     Al1180   1.806       .  S
O1172      C1179   1.238   1_556  A
O1173     Al1180   1.816       .  S
O1173      C1182   1.238       .  A
O1174     Al1180   1.875       .  S
O1175      C1182   1.258       .  A
O1176     Al1180   1.795       .  S
O1177      C1178   1.265       .  A
C1178      C1196   1.489       .  S
C1179      C1326   1.443       .  S
C1182      C1259   1.467       .  S
C1183      O1184   1.266   1_556  A
C1183      C1379   1.471       .  S
C1185      C1186   1.404       .  A
C1185      C1190   1.403   1_556  A
C1185      H1192   1.084   1_556  S
C1186      C1187   1.402       .  A
C1187      C1188   1.393       .  A
C1187     Br1194   1.922       .  S
C1188      C1189   1.412       .  A
C1188      H1193   1.083       .  S
C1189      C1190   1.417   1_556  A
C1190     Br1191   1.921       .  S
C1195      C1196   1.403       .  A
C1195      C1200   1.402       .  A
C1195      H1202   1.084   1_554  S
C1196      C1197   1.419       .  A
C1197      C1198   1.397       .  A
C1197     Br1204   1.924       .  S
C1198      C1199   1.403       .  A
C1198      H1203   1.084       .  S
C1199      C1200   1.419       .  A
C1200     Br1201   1.919   1_554  S
C1205      C1206   1.406       .  A
C1205      C1210   1.401       .  A
C1205      H1212   1.083       .  S
C1206      C1207   1.419       .  A
C1207      C1208   1.402       .  A
C1207     Br1214   1.923       .  S
C1208      C1209   1.402       .  A
C1208      H1213   1.084       .  S
C1209      C1210   1.408       .  A
C1210     Br1211   1.916       .  S
C1215      C1216   1.404       .  A
C1215      C1220   1.400       .  A
C1215      H1222   1.084       .  S
C1216      C1217   1.420       .  A
C1217      C1218   1.405       .  A
C1217     Br1224   1.920       .  S
C1218      C1219   1.406       .  A
C1218      H1223   1.083       .  S
C1219      C1220   1.423       .  A
C1220     Br1221   1.924       .  S
C1225      C1226   1.405       .  A
C1225      C1230   1.404       .  A
C1225      H1232   1.084       .  S
C1226      C2776   1.496       .  S
C1226      C1227   1.421       .  A
C1227      C1228   1.399       .  A
C1227     Br1234   1.923       .  S
C1228      C1229   1.404       .  A
C1228      H1233   1.084       .  S
C1229      C1230   1.419       .  A
C1230     Br1231   1.921       .  S
C1235      H1242   1.084       .  S
C1236      C1237   1.420       .  A
C1237      C1238   1.405       .  A
C1237     Br1244   1.922       .  S
C1238      C1239   1.405       .  A
C1238      H1243   1.083       .  S
C1239      C2759   1.499       .  S
C1239      C1240   1.421       .  A
C1245      C1246   1.408       .  A
C1245      C1250   1.403       .  A
C1245      H1252   1.084       .  S
C1246      C1247   1.412       .  A
C1247      C1248   1.399       .  A
C1248      C1249   1.410       .  A
C1248      H1253   1.083       .  S
C1249      C1250   1.417       .  A
C1250     Br1251   1.922       .  S
C1255      C1256   1.403       .  A
C1255      C1260   1.403       .  A
C1255      H1262   1.084       .  S
C1256      C1257   1.414       .  A
C1257      C1258   1.402       .  A
C1257     Br1264   1.922       .  S
C1258      C1259   1.403       .  A
C1258      H1263   1.084       .  S
C1259      C1260   1.411       .  A
C1260     Br1261   1.919       .  S
C1265      C1266   1.408       .  A
C1265      C1270   1.402       .  A
C1265      H1272   1.084       .  S
C1266      C1267   1.409       .  A
C1267      C1268   1.401       .  A
C1268      C1269   1.408       .  A
C1269      C1270   1.413       .  A
C1270     Br1271   1.921       .  S
C1275      C1276   1.402       .  A
C1275      C1280   1.400       .  A
C1275      H1282   1.084       .  S
C1276      C1277   1.412       .  A
C1277      C1278   1.399       .  A
C1277     Br1284   1.921       .  S
C1278      C1279   1.403       .  A
C1278      H1283   1.084       .  S
C1279      C1280   1.416       .  A
C1280     Br1281   1.923       .  S
C1285      C1286   1.405       .  A
C1285      C1290   1.400       .  A
C1285      H1292   1.083       .  S
C1286      C1287   1.419       .  A
C1287      C1288   1.400       .  A
C1287     Br1294   1.921       .  S
C1288      C1289   1.405       .  A
C1288      H1293   1.084       .  S
C1289      C1290   1.417       .  A
C1290     Br1291   1.919       .  S
C1295      C1296   1.403       .  A
C1295      C1300   1.401       .  A
C1295      H1302   1.084       .  S
C1296      C1297   1.421       .  A
C1297      C1298   1.403       .  A
C1297     Br1304   1.920       .  S
C1298      C1299   1.404       .  A
C1298      H1303   1.084       .  S
C1299      C1300   1.423       .  A
C1300     Br1301   1.924       .  S
C1305      C1310   1.399       .  A
C1307      C1308   1.400       .  A
C1307     Br1314   1.919       .  S
C1308      C1309   1.407       .  A
C1308      H1313   1.084       .  S
C1309      C1310   1.412       .  A
C1310     Br1311   1.921       .  S
C1315      C1316   1.406       .  A
C1315      C1320   1.409       .  A
C1315      H1322   1.083       .  S
C1316      C1317   1.416   1_554  A
C1317      C1318   1.399       .  A
C1317     Br1324   1.921       .  S
C1318      C1319   1.402   1_556  A
C1318      H1323   1.084       .  S
C1319      C1320   1.414       .  A
C1320     Br1321   1.916       .  S
C1325      C1326   1.395       .  A
C1325      C1330   1.392       .  A
C1325      H1332   1.085       .  S
C1327      C1328   1.391   1_554  A
C1327     Br1334   1.919       .  S
C1328      C1329   1.404   1_556  A
C1328      H1333   1.080       .  S
C1330     Br1331   1.923       .  S
C1335      C1336   1.402       .  A
C1335      C1340   1.401       .  A
C1335      H1342   1.084   1_554  S
C1336      C1337   1.423       .  A
C1337      C1338   1.399       .  A
C1337     Br1344   1.925       .  S
C1338      C1339   1.401       .  A
C1338      H1343   1.084       .  S
C1339      C1340   1.420       .  A
C1340     Br1341   1.920   1_554  S
C1345      C1346   1.406       .  A
C1345      C1350   1.401       .  A
C1345      H1352   1.084       .  S
C1346      C1347   1.413   1_556  A
C1347      C1348   1.394       .  A
C1347     Br1354   1.912       .  S
C1348      C1349   1.403   1_554  A
C1348      H1353   1.084       .  S
C1349      C1350   1.416       .  A
C1350     Br1351   1.922       .  S
C1355      C1356   1.401       .  A
C1355      C1360   1.400       .  A
C1355      H1362   1.084       .  S
C1356      C1357   1.410       .  A
C1357      C1358   1.402       .  A
C1357     Br1364   1.918       .  S
C1358      C1359   1.406       .  A
C1358      H1363   1.083       .  S
C1359      C1360   1.420       .  A
C1360     Br1361   1.924       .  S
C1365      C1366   1.409   1_554  A
C1365      C1370   1.387       .  A
C1365      H1372   1.084       .  S
C1366      C1367   1.410       .  A
C1367      C1368   1.392       .  A
C1367     Br1374   1.923       .  S
C1368      C1369   1.409   1_556  A
C1368      H1373   1.084       .  S
C1369      C1370   1.407       .  A
C1370     Br1371   1.924       .  S
C1375      C1376   1.403       .  A
C1375      C1380   1.398       .  A
C1375      H1382   1.080       .  S
C1376      C1377   1.406       .  A
C1377      C1378   1.404       .  A
C1377     Br1384   1.920       .  S
C1378      C1379   1.406       .  A
C1378      H1383   1.084       .  S
C1379      C1380   1.405       .  A
C1380     Br1381   1.919       .  S
C1385      C1386   1.403       .  A
C1385      C1390   1.401       .  A
C1385      H1392   1.084       .  S
C1386      C1387   1.412       .  A
C1387      C1388   1.400       .  A
C1387     Br1394   1.920       .  S
C1388      C1389   1.403       .  A
C1388      H1393   1.084       .  S
C1389      C1390   1.415       .  A
C1390     Br1391   1.923       .  S
C1395      C1396   1.399       .  A
C1395      C1400   1.398       .  A
C1395      H1402   1.082       .  S
C1396      C3061   1.403       .  A
C1397      C3060   1.403       .  A
C1397      C1398   1.405       .  A
C1397     Br1404   1.919       .  S
C1398      C1399   1.412       .  A
C1398      H1403   1.084       .  S
C1399      C3064   1.413       .  A
C1400      C3063   1.413   1_455  A
C1400     Br1401   1.918       .  S
C1405      C1406   1.404       .  A
C1405      C1410   1.393       .  A
C1405      H1412   1.082       .  S
C1406      C1407   1.415       .  A
C1407      C1408   1.388       .  A
C1407     Br1414   1.922       .  S
C1408      C1409   1.400       .  A
C1408      H1413   1.084       .  S
C1409      C1410   1.410       .  A
C1410     Br1411   1.923       .  S
C1415      C1416   1.408       .  A
C1415      C1420   1.400       .  A
C1415      H1422   1.084       .  S
C1416      C1417   1.409       .  A
C1417      C1418   1.398       .  A
C1417     Br1424   1.920       .  S
C1418      C1419   1.407       .  A
C1418      H1423   1.084       .  S
C1419      C1420   1.411       .  A
C1420     Br1421   1.921       .  S
C1425      C1426   1.405       .  A
C1425      C1430   1.404       .  A
C1425      H1432   1.083       .  S
C1426      C2627   1.498   1_455  S
C1426      C1427   1.422       .  A
C1427      C1428   1.400       .  A
C1427     Br1434   1.924       .  S
C1428      C1429   1.403       .  A
C1428      H1433   1.084       .  S
C1429      C1430   1.419       .  A
C1430     Br1431   1.919       .  S
C1435      C1436   1.409       .  A
C1435      C1440   1.402       .  A
C1435      H1442   1.084       .  S
C1436      C1437   1.413       .  A
C1437      C1438   1.400       .  A
C1437     Br1444   1.922       .  S
C1438      C1439   1.410       .  A
C1438      H1443   1.083       .  S
C1439      C1440   1.416       .  A
C1440     Br1441   1.922       .  S
C1445      C1446   1.408       .  A
C1445      C1450   1.402       .  A
C1445      H1452   1.084       .  S
C1446      C1447   1.408       .  A
C1447      C1448   1.400       .  A
C1447     Br1454   1.918       .  S
C1448      C1449   1.407       .  A
C1448      H1453   1.084       .  S
C1449      C1450   1.412       .  A
C1450     Br1451   1.920       .  S
C1455      C1456   1.410       .  A
C1455      C1460   1.409       .  A
C1455      H1462   1.084       .  S
C1456      C1457   1.417       .  A
C1457      C1458   1.399       .  A
C1457     Br1464   1.922       .  S
C1458      C1459   1.401       .  A
C1458      H1463   1.084       .  S
C1459      C1460   1.409       .  A
C1460     Br1461   1.917       .  S
C1465      C1466   1.411       .  A
C1465      C1470   1.393       .  A
C1465      H1472   1.084       .  S
C1466      C1467   1.406       .  A
C1467      C1468   1.390       .  A
C1467     Br1474   1.922       .  S
C1468      C1469   1.411       .  A
C1468      H1473   1.083       .  S
C1469      C1470   1.407       .  A
C1470     Br1471   1.920       .  S
C1475      C1480   1.402       .  A
C1475      H1482   1.084       .  S
C1476      C1477   1.409       .  A
C1477     Br1484   1.918       .  S
C1478      C1479   1.407       .  A
C1478      H1483   1.084       .  S
C1479      C1480   1.411       .  A
C1480     Br1481   1.920       .  S
C1485      C1486   1.405       .  A
C1485      C3154   1.395       .  A
C1485      H1492   1.083       .  S
C1486      C3151   1.422       .  A
C1487      C3150   1.422   1_455  A
C1487      C1488   1.410       .  A
C1487     Br1494   1.920   1_455  S
C1488      C1489   1.402       .  A
C1488      H1493   1.084       .  S
C1489      C1490   1.408       .  A
C1490      C3149   1.395   1_455  A
C1490     Br1491   1.913       .  S
C1495      C3160   1.406   1_455  A
C1495      C1500   1.391       .  A
C1495      H1502   1.084   1_455  S
C1496      C3159   1.406       .  A
C1497      C3162   1.389       .  A
C1497     Br1504   1.925       .  S
C1498      C3161   1.389   1_455  A
C1498      C1499   1.402       .  A
C1498      H1503   1.084       .  S
C1500     Br1501   1.925       .  S
C1505      C1506   1.403       .  A
C1505      C1510   1.403       .  A
C1505      H1512   1.084       .  S
C1506      C1507   1.412       .  A
C1507      C1508   1.400       .  A
C1507     Br1514   1.916       .  S
C1508      C1509   1.403       .  A
C1508      H1513   1.084       .  S
C1509      C1510   1.417       .  A
C1510     Br1511   1.922       .  S
C1515      C1516   1.405       .  A
C1515      C1520   1.405       .  A
C1515      H1522   1.083       .  S
C1516      C1517   1.423       .  A
C1517      C1518   1.399       .  A
C1517     Br1524   1.925       .  S
C1518      C1519   1.402       .  A
C1518      H1523   1.084       .  S
C1519      C1520   1.420       .  A
C1520     Br1521   1.919       .  S
C1525      C1526   1.403       .  A
C1525      C1530   1.398       .  A
C1525      H1532   1.084       .  S
C1526      C1527   1.421       .  A
C1527      C1528   1.404       .  A
C1527     Br1534   1.922       .  S
C1528      C1529   1.405       .  A
C1528      H1533   1.084       .  S
C1529      C1530   1.421       .  A
C1530     Br1531   1.925       .  S
C1535      C1536   1.408       .  A
C1535      C1540   1.400       .  A
C1535      H1542   1.084       .  S
C1536      C1537   1.413       .  A
C1537      C1538   1.402       .  A
C1537     Br1544   1.921       .  S
C1538      C1539   1.408       .  A
C1538      H1543   1.084       .  S
C1539      C1540   1.408       .  A
C1540     Br1541   1.918       .  S
C1545      C1546   1.411       .  A
C1545      C3214   1.391       .  A
C1545      H1552   1.083       .  S
C1546      C3211   1.401       .  A
C1547      C3210   1.401       .  A
C1547      C1548   1.389   1_655  A
C1547     Br3218   1.920       .  S
C1548      C1549   1.410       .  A
C1548      H1553   1.083       .  S
C1549      C1550   1.397       .  A
C1550      C3209   1.391   1_455  A
C1550     Br1551   1.917       .  S
Br1554     C3211   1.920       .  S
C1555      C3220   1.402   1_455  A
C1555      C1560   1.399       .  A
C1555      H1562   1.083       .  S
C1556      C3219   1.402       .  A
C1556      C1557   1.402       .  A
C1557      C3222   1.402       .  A
C1557     Br1564   1.918       .  S
C1558      C3221   1.402   1_455  A
C1558      C1559   1.412       .  A
C1558      H1563   1.083       .  S
C1559      C1560   1.413       .  A
C1560     Br1561   1.922       .  S
C1565      C1566   1.401       .  A
C1565      C1570   1.400   1_545  A
C1565      H1572   1.084       .  S
C1566      C1567   1.407   1_545  A
C1567      C1568   1.400       .  A
C1568      C1569   1.405       .  A
C1568      H1573   1.083       .  S
C1569      C1570   1.420       .  A
C1570     Br1571   1.924   1_565  S
C1575      C1576   1.409       .  A
C1575      C1580   1.405       .  A
C1575      H1582   1.084       .  S
C1576      C1577   1.405       .  A
C1577      C1578   1.394       .  A
C1578      C1579   1.408       .  A
C1579      C1580   1.415       .  A
C1580     Br1581   1.920       .  S
C1585      C1586   1.401       .  A
C1585      C1590   1.402       .  A
C1585      H1592   1.080       .  S
C1586      C1587   1.401       .  A
C1587      C1588   1.405       .  A
C1587     Br1594   1.914       .  S
C1588      C1589   1.409       .  A
C1588      H1593   1.083       .  S
C1589      C1590   1.411       .  A
C1590     Br1591   1.919       .  S
C1595      C1596   1.398       .  A
C1595      C1600   1.388       .  A
C1595      H1602   1.084       .  S
C1596      C1597   1.412       .  A
C1597      C1598   1.390       .  A
C1597     Br1604   1.926       .  S
C1598      C1599   1.404       .  A
C1598      H1603   1.082       .  S
C1599      C1600   1.423       .  A
C1600     Br1601   1.927       .  S
C1605      C1606   1.411   1_565  A
C1605      C1610   1.403       .  A
C1606      C1607   1.412       .  A
C1607      C1608   1.399       .  A
C1607     Br1614   1.918       .  S
C1608      C1609   1.404   1_545  A
C1608      H1613   1.084       .  S
C1609      C1610   1.406       .  A
C1610     Br1611   1.918       .  S
C1615      C1616   1.412       .  A
C1615      C1620   1.403       .  A
C1615      H1622   1.083       .  S
C1617      C1618   1.397       .  A
C1617     Br1624   1.926       .  S
C1618      H1623   1.084       .  S
C1619      C1620   1.410       .  A
C1620     Br1621   1.919       .  S
C1625      C1626   1.393       .  A
C1626      C2512   1.468   1_455  S
C1626      C1627   1.413       .  A
C1627      C1628   1.407       .  A
C1627     Br1634   1.917       .  S
C1628      C1629   1.403       .  A
C1628      H1633   1.084       .  S
C1630     Br1631   1.899   1_545  S
C1635      C1636   1.402       .  A
C1635      C1640   1.400       .  A
C1635      H1642   1.084       .  S
C1636      C1637   1.414       .  A
C1637      C1638   1.403       .  A
C1637     Br1644   1.921       .  S
C1638      C1639   1.403       .  A
C1638      H1643   1.084       .  S
C1639      C1640   1.413       .  A
C1640     Br1641   1.920       .  S
C1645      C3310   1.407       .  A
C1645      C1650   1.406       .  A
C1645      H1652   1.084       .  S
C1646      C3309   1.407       .  A
C1646      C1647   1.416       .  A
C1647      C1648   1.399       .  A
C1647     Br1654   1.920       .  S
C1648      C3313   1.401       .  A
C1648      H1653   1.084       .  S
C1649      C3312   1.401       .  A
C1649      C1650   1.411       .  A
C1650     Br1651   1.919       .  S
C1655      C1656   1.404       .  A
C1655      C1660   1.396       .  A
C1655      H1662   1.083       .  S
C1656      C1657   1.404       .  A
C1657      C1658   1.385       .  A
C1657     Br1664   1.912       .  S
C1658      C1659   1.400       .  A
C1658      H1663   1.084       .  S
C1659      C1660   1.409       .  A
C1660     Br1661   1.921       .  S
O1665     Al1673   1.931       .  S
O1665      C2512   1.269       .  A
C1666      O2508   1.268   1_545  A
C1666      O1667   1.261       .  A
C1666      C2448   1.491       .  S
O1667     Al1669   1.889       .  S
O1668     Al1669   1.940       .  S
O1668      C1670   1.270       .  A
Al1669     O1677   1.977       .  S
Al1669     O1679   1.895       .  S
Al1669     O2510   1.775   1_545  S
C1670      O2515   1.265   1_545  A
C1670      C2468   1.483       .  S
O1671     Al1673   1.939       .  S
O1671      C1681   1.263       .  A
O1672     Al1682   1.930       .  S
O1672      C1685   1.267       .  A
Al1673     O1686   1.914       .  S
Al1673     O1683   1.901       .  S
Al1673     O1678   1.775       .  S
O1674     Al1682   1.843       .  S
O1674      C1681   1.248       .  A
O1675     Al1682   1.866       .  S
O1675      C2516   1.252       .  A
O1676     Al1682   1.938       .  S
O1676      C2498   1.268       .  A
O1677      C1684   1.272       .  A
O1678     Al2501   1.775       .  S
O1678     Al1682   1.746       .  S
O1679      C1680   1.270       .  A
C1680      O2497   1.269       .  A
C1681      C2488   1.455       .  S
O1683      C2502   1.265       .  A
C1684      O2507   1.252   1_545  A
C1684      C3270   1.482       .  S
C1685      O1686   1.269       .  A
C1685      C2481   1.482   1_655  S
O1687     Al1695   1.911       .  S
O1687      C1702   1.266       .  A
C1688      O1698   1.262       .  A
C1688      O2521   1.267   1_545  A
C1688      C2461   1.472       .  S
O1689     Al1691   1.943       .  S
O1689      C2520   1.267       .  A
O1690     Al1691   1.863       .  S
O1690      C1692   1.250       .  A
Al1691     O1699   1.868       .  S
Al1691     O1701   1.938       .  S
Al1691     O1700   1.759       .  S
C1692      O1705   1.265       .  A
C1692      C2428   1.467       .  S
O1693     Al1695   1.888       .  S
O1693      C2535   1.263       .  A
O1694     Al1704   1.923       .  S
O1694      C1707   1.271       .  A
Al1695     O1708   1.911       .  S
Al1695     O1705   1.916       .  S
Al1695     O1700   1.765       .  S
O1696     Al1704   1.950       .  S
O1696      C1703   1.270       .  A
O1697     Al1704   1.974       .  S
O1697      C1706   1.272       .  A
O1698     Al1704   1.895       .  S
O1699      C2538   1.252       .  A
O1700     Al2536   1.774       .  S
O1701      C1702   1.265       .  A
C1702      C2418   1.475       .  S
C1703      O2525   1.263   1_545  A
C1703      C2411   1.493       .  S
Al1704     O2532   1.774   1_545  S
C1706      O2531   1.252   1_545  A
C1706      C3230   1.472       .  S
C1707      O2540   1.267   1_545  A
C1707      C2451   1.489       .  S
O1708      C2539   1.267       .  A
O1709     Al1717   1.911       .  S
O1709      C1724   1.267       .  A
C1710      O1720   1.259       .  A
C1710      O1711   1.271       .  A
C1710      C2358   1.496       .  S
O1711     Al1713   1.940       .  S
O1712     Al1713   1.870       .  S
O1712      C1714   1.251       .  A
Al1713     O1721   1.860       .  S
Al1713     O1723   1.937       .  S
Al1713     O1722   1.753       .  S
C1714      O1727   1.263       .  A
C1714      C2378   1.464       .  S
O1715     Al1717   1.895       .  S
O1715      C1725   1.265       .  A
O1716     Al1726   1.932       .  S
O1716      C1729   1.275       .  A
Al1717     O1730   1.920       .  S
Al1717     O1727   1.924       .  S
Al1717     O1722   1.764       .  S
O1718     Al1726   1.944       .  S
O1718      C1725   1.271       .  A
O1719     Al1726   1.978       .  S
O1719      C1728   1.272       .  A
O1720     Al1726   1.895       .  S
O1721      C1728   1.250       .  A
O1722     Al1726   1.775       .  S
O1723      C1724   1.267       .  A
C1724      C2388   1.471       .  S
C1725      C2368   1.488       .  S
C1728      C2338   1.477       .  S
C1729      O1730   1.265       .  A
C1729      C2348   1.498       .  S
O1731     Al1739   1.923       .  S
O1731      C1746   1.266       .  A
C1732      O1742   1.270       .  A
C1732      O2565   1.259       .  A
C1732      C2351   1.496       .  S
O1733     Al1735   1.899       .  S
O1733      C2564   1.259   1_545  A
O1734     Al1735   1.951       .  S
O1734      C1736   1.273       .  A
Al1735     O1743   1.982       .  S
Al1735     O1745   1.927       .  S
Al1735     O1744   1.771       .  S
C1736      O1749   1.265       .  A
C1736      C2311   1.485       .  S
O1737     Al1739   1.941       .  S
O1737      C1747   1.264       .  A
O1738     Al1748   1.955       .  S
O1738      C1751   1.270       .  A
Al1739     O1752   1.903       .  S
Al1739     O1749   1.888       .  S
Al1739     O1744   1.769       .  S
O1740     Al1748   1.861   1_565  S
O1740      C1747   1.244   1_565  A
O1741     Al1748   1.850       .  S
O1741      C1750   1.249       .  A
O1742     Al2580   1.939       .  S
O1743      C1750   1.274       .  A
O1744     Al1748   1.747       .  S
O1745      C1746   1.274       .  A
C1746      C2361   1.495       .  S
C1747      C2328   1.472   1_545  S
Al1748     O2574   1.939       .  S
C1750      C2471   1.475       .  S
C1751      O1752   1.269       .  A
C1751      C2318   1.497       .  S
O1753     Al1761   1.931       .  S
O1753      C1768   1.271       .  A
C1754      O1764   1.270       .  A
C1754      O1755   1.259       .  A
C1754      C2261   1.496       .  S
O1755     Al1757   1.898       .  S
O1756     Al1757   1.944       .  S
O1756      C1758   1.271       .  A
Al1757     O1765   1.965       .  S
Al1757     O1767   1.910       .  S
Al1757     O1766   1.771       .  S
C1758      O1771   1.265       .  A
C1758      C2281   1.487       .  S
O1759     Al1761   1.948       .  S
O1759      C1769   1.263       .  A
O1760     Al1770   1.963       .  S
O1760      C1773   1.273       .  A
Al1761     O1774   1.906       .  S
Al1761     O1771   1.895       .  S
Al1761     O1766   1.774       .  S
O1762     Al1770   1.869       .  S
O1762      C1769   1.247       .  A
O1763     Al1770   1.857       .  S
O1763      C1772   1.252       .  A
O1764     Al1770   1.940       .  S
O1765      C1772   1.271       .  A
O1766     Al1770   1.746       .  S
O1767      C1768   1.268       .  A
C1768      C2271   1.495       .  S
C1769      C2301   1.479       .  S
C1772      C2248   1.475       .  S
C1773      O1774   1.267       .  A
C1773      C2288   1.493       .  S
O1775     Al1783   1.909       .  S
O1775      C1790   1.267       .  A
C1776      O1786   1.262       .  A
C1776      O1777   1.267       .  A
C1776      C2268   1.491       .  S
O1777     Al1779   1.936       .  S
O1778     Al1779   1.861       .  S
O1778      C1780   1.248       .  A
Al1779     O1787   1.862       .  S
Al1779     O1789   1.944       .  S
Al1779     O1788   1.752       .  S
C1780      O1793   1.264       .  A
C1780      C2241   1.464       .  S
O1781     Al1783   1.892       .  S
O1781      C1791   1.263       .  A
O1782     Al1792   1.927       .  S
O1782      C1795   1.273       .  A
Al1783     O1796   1.923       .  S
Al1783     O1793   1.926       .  S
Al1783     O1788   1.767       .  S
O1784     Al1792   1.947       .  S
O1784      C1791   1.273       .  A
O1785     Al1792   1.970       .  S
O1785      C1794   1.271       .  A
O1786     Al1792   1.894       .  S
O1787      C1794   1.251       .  A
O1788     Al1792   1.774       .  S
O1789      C1790   1.269       .  A
C1790      C2231   1.490       .  S
C1791      C2341   1.487       .  S
C1794      C2218   1.476       .  S
C1795      O1796   1.266       .  A
O1797     Al1805   1.907       .  S
O1797      C1812   1.260       .  A
C1798      O1808   1.264       .  A
C1798      O1799   1.260       .  A
C1798      C2178   1.485       .  S
O1799     Al1801   1.899       .  S
O1800     Al1801   1.954   1_554  S
O1800      C1802   1.275       .  A
Al1801     O1809   1.978       .  S
Al1801     O1811   1.925   1_556  S
Al1801     O1810   1.769   1_556  S
C1802      O1815   1.263       .  A
C1802      C2191   1.491       .  S
O1803     Al1805   1.925       .  S
O1803      C1813   1.262       .  A
O1804     Al1814   1.939       .  S
O1804      C1817   1.267       .  A
Al1805     O1818   1.913       .  S
Al1805     O1815   1.884       .  S
Al1805     O1810   1.771       .  S
O1806     Al1814   1.875   1_554  S
O1806      C1813   1.251       .  A
O1807     Al1814   1.849       .  S
O1807      C1816   1.251       .  A
O1808     Al1814   1.923       .  S
O1809      C1816   1.274       .  A
O1810     Al1814   1.754   1_554  S
O1811      C1812   1.271       .  A
C1812      C2168   1.493       .  S
C1813      C2201   1.472       .  S
C1816      C2278   1.475       .  S
C1817      O1818   1.268   1_556  A
C1817      C2208   1.474       .  S
O1819     Al1827   1.900       .  S
O1819      C1834   1.264   1_556  A
C1820      O2662   1.256       .  A
C1820      O1821   1.273       .  A
C1820      C2171   1.492       .  S
O1821     Al2655   1.950       .  S
O1822     Al1823   1.851       .  S
O1822      C1824   1.239   1_554  A
Al1823     O2653   1.950       .  S
Al1823     O1831   1.862       .  S
Al1823     O1833   1.969       .  S
Al1823     O1832   1.741       .  S
C1824      O1837   1.268       .  A
C1824      C2161   1.473   1_556  S
O1825     Al1827   1.897       .  S
O1825      C1835   1.265       .  A
O1826     Al1836   1.887       .  S
O1826      C1839   1.270   1_554  A
Al1827     O1840   1.940       .  S
Al1827     O1837   1.967       .  S
Al1827     O1832   1.771   1_556  S
O1828     Al1836   1.937   1_556  S
O1828      C1835   1.269       .  A
O1829     Al1836   1.978       .  S
O1829      C1838   1.273       .  A
O1830     Al1836   1.881       .  S
O1830      C2652   1.256   1_545  A
O1831      C1838   1.250       .  A
O1832     Al1836   1.771       .  S
O1833      C1834   1.273       .  A
C1834      C2148   1.491       .  S
C1835      C2141   1.482       .  S
C1838      C2408   1.476       .  S
C1839      O1840   1.272       .  A
C1839      C2181   1.487       .  S
O1841     Al1849   1.935       .  S
O1841      C1856   1.270       .  A
C1842      O1852   1.273       .  A
C1842      O1843   1.259       .  A
C1842      C2128   1.497       .  S
O1843     Al1845   1.891       .  S
O1844     Al1845   1.943       .  S
O1844      C1846   1.269       .  A
Al1845     O1853   1.971       .  S
Al1845     O1855   1.905       .  S
Al1845     O1854   1.775       .  S
C1846      O1859   1.262       .  A
C1846      C2251   1.482       .  S
O1847     Al1849   1.940       .  S
O1847      C1857   1.265       .  A
O1848     Al1858   1.962       .  S
O1848      C1861   1.271       .  A
Al1849     O1862   1.898       .  S
Al1849     O1859   1.885       .  S
Al1849     O1854   1.767       .  S
O1850     Al1858   1.861       .  S
O1850      C1857   1.247       .  A
O1851     Al1858   1.862       .  S
O1851      C1860   1.251       .  A
O1852     Al1858   1.952       .  S
O1853      C1860   1.271       .  A
O1854     Al1858   1.749       .  S
O1855      C1856   1.271       .  A
C1856      C2118   1.494       .  S
C1857      C2381   1.464       .  S
C1860      C2108   1.475       .  S
C1861      O1862   1.263       .  A
C1861      C2321   1.482       .  S
O1863     Al1871   1.908       .  S
O1863      C1878   1.267       .  A
C1864      O2706   1.259       .  A
C1864      O2697   1.268       .  A
C1864      C2121   1.492   1_565  S
O1865     Al1867   1.932       .  S
O1865      C2696   1.268       .  A
O1866     Al1867   1.865       .  S
O1866      C1868   1.248       .  A
Al1867     O1875   1.855       .  S
Al1867     O1877   1.938       .  S
Al1867     O1876   1.752       .  S
C1868      O1881   1.264       .  A
C1868      C2331   1.467       .  S
O1869     Al1871   1.882       .  S
O1869      C1879   1.261       .  A
O1870     Al1880   1.926       .  S
O1870      C1883   1.272       .  A
Al1871     O1884   1.918       .  S
Al1871     O1881   1.925       .  S
Al1871     O1876   1.771       .  S
O1872     Al1880   1.948       .  S
O1872      C1879   1.274       .  A
O1873     Al1880   1.979       .  S
O1873      C1882   1.273       .  A
O1874     Al1880   1.896       .  S
O1874      C2696   1.259       .  A
O1875      C1882   1.251       .  A
O1876     Al1880   1.773       .  S
O1877      C1878   1.269       .  A
C1878      C2391   1.488       .  S
C1879      C2401   1.489       .  S
C1882      C2098   1.479       .  S
C1883      O1884   1.264       .  A
C1883      C2131   1.498       .  S
O1885     Al2725   1.933       .  S
O1885      C1900   1.273       .  A
C1886      O2728   1.272       .  A
C1886      O1887   1.260       .  A
C1886      C2068   1.499       .  S
O1887     Al1889   1.897       .  S
O1888     Al1889   1.949       .  S
O1888      C1890   1.271       .  A
Al1889     O1897   1.976       .  S
Al1889     O1899   1.909       .  S
Al1889     O2730   1.774       .  S
C1890      O1903   1.264       .  A
C1890      C2088   1.484       .  S
O1891     Al1893   1.948       .  S
O1891      C1901   1.266       .  A
O1892     Al1902   1.955       .  S
O1892      C1905   1.270       .  A
Al1893     O2717   1.933   1_545  S
Al1893     O1906   1.903       .  S
Al1893     O2735   1.896   1_545  S
Al1893     O1898   1.771   1_545  S
O1894     Al1902   1.852       .  S
O1894      C1901   1.244       .  A
O1895     Al1902   1.861       .  S
O1895      C2736   1.251   1_545  A
O1896     Al1902   1.948   1_565  S
O1896      C2718   1.272       .  A
O1897      C1904   1.272       .  A
O1898     Al2721   1.774       .  S
O1898     Al1902   1.747   1_565  S
O1899      C1900   1.269       .  A
C1900      C2081   1.496       .  S
C1901      C2238   1.469       .  S
O1903     Al2725   1.896       .  S
C1904      O2727   1.251       .  A
C1904      C2308   1.480       .  S
C1905      O1906   1.266       .  A
C1905      C2291   1.485       .  S
O1907     Al1915   1.913       .  S
O1907      C1922   1.267       .  A
C1908      O1918   1.262       .  A
C1908      O2741   1.264       .  A
C1908      C2078   1.488       .  S
O1909     Al1911   1.926   1_565  S
O1909      C2740   1.264       .  A
O1910     Al1911   1.873       .  S
O1910      C1912   1.250       .  A
Al1911     O1919   1.854       .  S
Al1911     O1921   1.944       .  S
Al1911     O2752   1.751   1_545  S
C1912      O1925   1.264       .  A
C1912      C2298   1.476       .  S
O1913     Al2747   1.897       .  S
O1913      C1923   1.266       .  A
O1914     Al1924   1.925       .  S
O1914      C1927   1.272       .  A
Al1915     O2745   1.897   1_545  S
Al1915     O2760   1.928   1_545  S
Al1915     O1925   1.938       .  S
Al1915     O2752   1.768   1_545  S
O1916     Al1924   1.943       .  S
O1916      C1923   1.271       .  A
O1917     Al1924   1.967       .  S
O1917      C1926   1.271       .  A
O1918     Al1924   1.900       .  S
O1919      C2758   1.253   1_545  A
O1920     Al2743   1.751       .  S
O1920     Al2747   1.768       .  S
O1920     Al1924   1.771       .  S
O1921      C1922   1.268       .  A
C1922      C2228   1.474       .  S
C1923      C2101   1.489       .  S
C1926      O2751   1.253       .  A
C1926      C2138   1.473       .  S
C1927      O1928   1.266       .  A
O1928     Al2747   1.928       .  S
O1929     Al1937   1.933       .  S
O1929      C1944   1.270       .  A
C1930      O1940   1.273       .  A
C1930      O1931   1.262       .  A
C1930      C2048   1.498       .  S
O1931     Al1933   1.901       .  S
O1932     Al1933   1.945       .  S
O1932      C1934   1.271       .  A
Al1933     O1941   1.980       .  S
Al1933     O1943   1.920       .  S
Al1933     O1942   1.775       .  S
C1934      O1947   1.262       .  A
C1934      C2111   1.483       .  S
O1935     Al1937   1.944       .  S
O1935      C1945   1.266       .  A
O1936     Al1946   1.950       .  S
O1936      C1949   1.269       .  A
Al1937     O1950   1.905       .  S
Al1937     O1947   1.888       .  S
Al1937     O1942   1.768       .  S
O1938     Al1946   1.861       .  S
O1938      C1945   1.243       .  A
O1939     Al1946   1.867       .  S
O1939      C1948   1.249       .  A
O1940     Al1946   1.948       .  S
O1941      C1948   1.272       .  A
O1942     Al1946   1.743       .  S
O1943      C1944   1.275       .  A
C1945      C2431   1.477       .  S
C1948      C2188   1.475       .  S
C1949      O1950   1.265       .  A
C1949      C2478   1.488       .  S
O1951     Al1959   1.901       .  S
O1951      C1966   1.267       .  A
C1952      O1962   1.259       .  A
C1952      O1953   1.269       .  A
C1952      C2061   1.496       .  S
O1953     Al1955   1.935       .  S
O1954     Al1955   1.864       .  S
O1954      C1956   1.248       .  A
Al1955     O1963   1.854       .  S
Al1955     O1965   1.949       .  S
Al1955     O1964   1.753       .  S
C1956      O1969   1.264       .  A
C1956      C2491   1.456       .  S
O1957     Al1959   1.892       .  S
O1957      C1967   1.263       .  A
O1958     Al1968   1.928       .  S
O1958      C1971   1.273       .  A
Al1959     O1972   1.924       .  S
Al1959     O1969   1.930       .  S
Al1959     O1964   1.766       .  S
O1960     Al1968   1.947       .  S
O1960      C1967   1.273       .  A
O1961     Al1968   1.977       .  S
O1961      C1970   1.272       .  A
O1962     Al1968   1.895       .  S
O1963      C1970   1.250       .  A
O1964     Al1968   1.773       .  S
O1965      C1966   1.270       .  A
C1966      C2421   1.488       .  S
C1967      C2038   1.491       .  S
C1970      C2371   1.476       .  S
C1971      O1972   1.265       .  A
C1971      C2051   1.500       .  S
O1973     Al1981   1.908       .  S
O1973      C1988   1.269   1_556  A
C1974      O1984   1.259       .  A
C1974      O1975   1.270       .  A
C1974      C2031   1.490       .  S
O1975     Al1977   1.940       .  S
O1976     Al1977   1.867       .  S
O1976      C1978   1.248   1_554  A
Al1977     O1985   1.864       .  S
Al1977     O1987   1.956       .  S
Al1977     O1986   1.744       .  S
C1978      O1991   1.261       .  A
C1978      C2198   1.474       .  S
O1979     Al1981   1.891       .  S
O1979      C1989   1.264       .  A
O1980     Al1990   1.917       .  S
O1980      C1993   1.271   1_554  A
Al1981     O1994   1.917       .  S
Al1981     O1991   1.936       .  S
Al1981     O1986   1.771   1_556  S
O1982     Al1990   1.949   1_556  S
O1982      C1989   1.273       .  A
O1983     Al1990   1.977       .  S
O1983      C1992   1.273       .  A
O1984     Al1990   1.892       .  S
O1985      C1992   1.251       .  A
O1986     Al1990   1.773       .  S
O1987      C1988   1.271       .  A
C1988      C2151   1.490       .  S
C1989      C2221   1.484       .  S
C1992      C2041   1.475       .  S
C1993      O1994   1.269       .  A
C1993      C2021   1.491       .  S
O1995     Al2003   1.870       .  S
O1995      C2010   1.253       .  A
C1996      O2838   1.261       .  A
C1996      O2829   1.267       .  A
C1996      C2018   1.469   1_565  S
O1997     Al1999   1.919       .  S
O1997      C2828   1.267       .  A
O1998     Al1999   1.909   1_554  S
O1998      C2000   1.256       .  A
Al1999     O2007   1.941       .  S
Al1999     O2009   1.921   1_556  S
Al1999     O2008   1.818       .  S
C2000      O2013   1.253       .  A
C2000      C2441   1.479       .  S
O2001     Al2003   1.896       .  S
O2001      C2011   1.247       .  A
O2002     Al2012   1.906       .  S
O2002      C2015   1.266       .  A
Al2003     O2016   1.911       .  S
Al2003     O2013   1.876       .  S
Al2003     O2008   1.805   1_554  S
O2004     Al2012   1.806       .  S
O2004      C2011   1.238   1_556  A
O2005     Al2012   1.816       .  S
O2005      C2014   1.238       .  A
O2006     Al2012   1.875       .  S
O2006      C2828   1.261       .  A
O2007      C2014   1.258       .  A
O2008     Al2012   1.795       .  S
O2009      C2010   1.265       .  A
C2010      C2028   1.489       .  S
C2011      C2158   1.443       .  S
C2014      C2091   1.467       .  S
C2015      O2016   1.266   1_556  A
C2015      C2211   1.471       .  S
C2017      C2018   1.404       .  A
C2017      C2022   1.403   1_556  A
C2017      H2024   1.084   1_556  S
C2018      C2019   1.402       .  A
C2019      C2020   1.393       .  A
C2019     Br2026   1.922       .  S
C2020      C2021   1.412       .  A
C2020      H2025   1.083       .  S
C2021      C2022   1.417   1_556  A
C2022     Br2023   1.921       .  S
C2027      C2028   1.403       .  A
C2027      C2032   1.402       .  A
C2027      H2034   1.084   1_554  S
C2028      C2029   1.419       .  A
C2029      C2030   1.397       .  A
C2029     Br2036   1.924       .  S
C2030      C2031   1.403       .  A
C2030      H2035   1.084       .  S
C2031      C2032   1.419       .  A
C2032     Br2033   1.919   1_554  S
C2037      C2038   1.406       .  A
C2037      C2042   1.401       .  A
C2037      H2044   1.083       .  S
C2038      C2039   1.419       .  A
C2039      C2040   1.402       .  A
C2039     Br2046   1.923       .  S
C2040      C2041   1.402       .  A
C2040      H2045   1.084       .  S
C2041      C2042   1.408       .  A
C2042     Br2043   1.916       .  S
C2047      C2048   1.404       .  A
C2047      C2052   1.400       .  A
C2047      H2054   1.084       .  S
C2048      C2049   1.420       .  A
C2049      C2050   1.405       .  A
C2049     Br2056   1.920       .  S
C2050      C2051   1.406       .  A
C2050      H2055   1.083       .  S
C2051      C2052   1.423       .  A
C2052     Br2053   1.924       .  S
C2057      C2058   1.405       .  A
C2057      C2062   1.404       .  A
C2057      H2064   1.084       .  S
C2058      C2059   1.421       .  A
C2059      C2060   1.399       .  A
C2059     Br2066   1.923       .  S
C2060      C2061   1.404       .  A
C2060      H2065   1.084       .  S
C2061      C2062   1.419       .  A
C2062     Br2063   1.921       .  S
C2067      C2900   1.404       .  A
C2067      C2904   1.401       .  A
C2067      H2074   1.084   1_565  S
C2068      C2899   1.404       .  A
C2068      C2069   1.420       .  A
C2069      C2070   1.405       .  A
C2069     Br2076   1.922       .  S
C2070      C2071   1.405       .  A
C2070      H2075   1.083       .  S
C2071      C2072   1.421       .  A
C2072      C2899   1.401       .  A
C2072     Br2905   1.924       .  S
Br2073     C2904   1.924   1_545  S
C2077      C2078   1.408       .  A
C2077      C2082   1.403       .  A
C2077      H2084   1.084       .  S
C2078      C2079   1.412       .  A
C2079      C2080   1.399       .  A
C2079     Br2918   1.923       .  S
C2080      C2081   1.410       .  A
C2080      H2085   1.083       .  S
C2081      C2082   1.417       .  A
C2082     Br2083   1.922       .  S
Br2086     C2911   1.923       .  S
C2087      C2088   1.403       .  A
C2087      C2092   1.403       .  A
C2087      H2094   1.084       .  S
C2088      C2089   1.414       .  A
C2089      C2090   1.402       .  A
C2089     Br2096   1.922       .  S
C2090      C2091   1.403       .  A
C2090      H2095   1.084       .  S
C2091      C2092   1.411       .  A
C2092     Br2093   1.919       .  S
C2097      C2098   1.408       .  A
C2097      C2102   1.402       .  A
C2097      H2104   1.084       .  S
C2098      C2099   1.409       .  A
C2099      C2100   1.401       .  A
C2099     Br2938   1.919       .  S
C2100      C2101   1.408       .  A
C2100      H2937   1.084       .  S
C2101      C2102   1.413       .  A
C2102     Br2103   1.921       .  S
H2105      C2932   1.084       .  S
Br2106     C2931   1.919       .  S
C2107      C2108   1.402       .  A
C2107      C2112   1.400       .  A
C2107      H2114   1.084       .  S
C2108      C2109   1.412       .  A
C2109      C2110   1.399       .  A
C2109     Br2116   1.921       .  S
C2110      C2111   1.403       .  A
C2110      H2115   1.084       .  S
C2111      C2112   1.416       .  A
C2112     Br2113   1.923       .  S
C2117      C2118   1.405       .  A
C2117      C2122   1.400       .  A
C2117      H2124   1.083       .  S
C2118      C2119   1.419       .  A
C2119      C2120   1.400       .  A
C2119     Br2126   1.921       .  S
C2120      C2121   1.405       .  A
C2120      H2125   1.084       .  S
C2121      C2122   1.417       .  A
C2122     Br2123   1.919       .  S
C2127      C2128   1.403       .  A
C2127      C2132   1.401       .  A
C2127      H2134   1.084       .  S
C2128      C2129   1.421       .  A
C2129      C2130   1.403       .  A
C2129     Br2136   1.920       .  S
C2130      C2131   1.404       .  A
C2130      H2135   1.084       .  S
C2131      C2132   1.423       .  A
C2132     Br2133   1.924       .  S
C2137      C2970   1.407   1_545  A
C2137      C2142   1.399       .  A
C2137      H2976   1.084       .  S
C2138      C2969   1.407       .  A
C2138      C2971   1.408       .  A
C2139      C2970   1.408       .  A
C2139      C2140   1.400       .  A
C2139     Br2146   1.919       .  S
C2140      C2141   1.407   1_565  A
C2140      H2145   1.084       .  S
C2141      C2142   1.412       .  A
C2142     Br2143   1.921       .  S
H2144      C2969   1.084       .  S
C2147      C2148   1.406       .  A
C2147      C2152   1.409       .  A
C2147      H2154   1.083       .  S
C2148      C2149   1.416   1_554  A
C2149      C2150   1.399       .  A
C2149     Br2156   1.921       .  S
C2150      C2151   1.402   1_556  A
C2150      H2155   1.084       .  S
C2151      C2152   1.414       .  A
C2152     Br2153   1.916       .  S
C2157      C2158   1.395       .  A
C2157      C2162   1.392       .  A
C2157      H2164   1.085       .  S
C2158      C2991   1.403       .  A
C2159      C2990   1.403   1_545  A
C2159      C2160   1.391   1_554  A
C2159     Br2166   1.919       .  S
C2160      C2161   1.404   1_556  A
C2160      H2165   1.080       .  S
C2161      C2994   1.420   1_545  A
C2162      C2993   1.420       .  A
C2162     Br2163   1.923       .  S
C2167      C2168   1.402       .  A
C2167      C2172   1.401       .  A
C2167      H2174   1.084   1_554  S
C2168      C2169   1.423       .  A
C2169      C2170   1.399       .  A
C2169     Br2176   1.925       .  S
C2170      C2171   1.401       .  A
C2170      H2175   1.084       .  S
C2171      C2172   1.420       .  A
C2172     Br2173   1.920   1_554  S
C2177      C2178   1.406       .  A
C2177      C2182   1.401       .  A
C2177      H2184   1.084       .  S
C2178      C2179   1.413   1_556  A
C2179      C2180   1.394       .  A
C2179     Br2186   1.912       .  S
C2180      C2181   1.403   1_554  A
C2180      H2185   1.084       .  S
C2181      C2182   1.416       .  A
C2182     Br2183   1.922       .  S
C2187      C2188   1.401       .  A
C2187      C2192   1.400       .  A
C2187      H2194   1.084       .  S
C2188      C2189   1.410       .  A
C2189      C2190   1.402       .  A
C2189     Br2196   1.918       .  S
C2190      C2191   1.406       .  A
C2190      H2195   1.083       .  S
C2191      C2192   1.420       .  A
C2192     Br2193   1.924       .  S
C2197      C2198   1.409   1_554  A
C2197      C2202   1.387       .  A
C2197      H2204   1.084       .  S
C2198      C2199   1.410       .  A
C2199      C2200   1.392       .  A
C2199     Br2206   1.923       .  S
C2200      C2201   1.409   1_556  A
C2200      H2205   1.084       .  S
C2201      C2202   1.407       .  A
C2202     Br2203   1.924       .  S
C2207      C2208   1.403       .  A
C2207      C2212   1.398       .  A
C2207      H2214   1.080       .  S
C2208      C2209   1.406       .  A
C2209      C2210   1.404       .  A
C2209     Br2216   1.920       .  S
C2210      C2211   1.406       .  A
C2210      H2215   1.084       .  S
C2211      C2212   1.405       .  A
C2212     Br2213   1.919       .  S
C2217      C2218   1.403       .  A
C2217      C2222   1.401       .  A
C2217      H2224   1.084       .  S
C2218      C2219   1.412       .  A
C2219      C2220   1.400       .  A
C2219     Br2226   1.920   1_655  S
C2220      C2221   1.403       .  A
C2220      H2225   1.084       .  S
C2221      C2222   1.415       .  A
C2222     Br2223   1.923       .  S
C2227      C2228   1.399       .  A
C2227      C2232   1.398       .  A
C2227      H2234   1.082       .  S
C2229      C2230   1.405   1_455  A
C2229     Br2236   1.919   1_455  S
C2230      C2231   1.412       .  A
C2230      H2235   1.084       .  S
C2232     Br2233   1.918       .  S
C2237      C2238   1.404       .  A
C2237      C2242   1.393       .  A
C2237      H2244   1.082       .  S
C2238      C2239   1.415       .  A
C2239      C2240   1.388       .  A
C2239     Br2246   1.922       .  S
C2240      C2241   1.400       .  A
C2240      H2245   1.084       .  S
C2241      C2242   1.410       .  A
C2242     Br2243   1.923       .  S
C2247      C2248   1.408       .  A
C2247      C2252   1.400       .  A
C2247      H2254   1.084       .  S
C2248      C2249   1.409       .  A
C2249      C2250   1.398       .  A
C2249     Br2256   1.920       .  S
C2250      C2251   1.407       .  A
C2250      H2255   1.084       .  S
C2251      C2252   1.411       .  A
C2252     Br2253   1.921       .  S
C2257      C2258   1.405       .  A
C2257      C2262   1.404       .  A
C2257      H2264   1.083       .  S
C2258      C2259   1.422       .  A
C2259      C2260   1.400       .  A
C2259     Br2266   1.924       .  S
C2260      C2261   1.403       .  A
C2260      H2265   1.084       .  S
C2261      C2262   1.419       .  A
C2262     Br2263   1.919       .  S
C2267      C2268   1.409       .  A
C2267      C2272   1.402       .  A
C2267      H2274   1.084       .  S
C2268      C2269   1.413       .  A
C2269      C2270   1.400       .  A
C2269     Br2276   1.922       .  S
C2270      C2271   1.410       .  A
C2270      H2275   1.083       .  S
C2271      C2272   1.416       .  A
C2272     Br2273   1.922       .  S
C2277      C2278   1.408       .  A
C2277      C2282   1.402       .  A
C2277      H2284   1.084       .  S
C2278      C2279   1.408       .  A
C2279      C2280   1.400       .  A
C2279     Br2286   1.918       .  S
C2280      C2281   1.407       .  A
C2280      H2285   1.084       .  S
C2281      C2282   1.412       .  A
C2282     Br2283   1.920       .  S
C2287      C2288   1.410       .  A
C2287      C2292   1.409       .  A
C2287      H2294   1.084       .  S
C2288      C2289   1.417       .  A
C2289      C2290   1.399       .  A
C2289     Br2296   1.922       .  S
C2290      C2291   1.401       .  A
C2290      H2295   1.084       .  S
C2291      C2292   1.409       .  A
C2292     Br2293   1.917       .  S
C2297      C2298   1.411       .  A
C2297      C2302   1.393       .  A
C2297      H2304   1.084       .  S
C2298      C2299   1.406       .  A
C2299      C2300   1.390       .  A
C2299     Br2306   1.922       .  S
C2300      C2301   1.411       .  A
C2300      H2305   1.083       .  S
C2301      C2302   1.407       .  A
C2302     Br2303   1.920       .  S
C2307      C3140   1.409   1_545  A
C2307      C2312   1.402       .  A
C2307      H2314   1.084       .  S
C2308      C3139   1.409       .  A
C2308      C2309   1.409       .  A
C2309      C3142   1.399       .  A
C2309     Br2316   1.918       .  S
C2310      C3141   1.399       .  A
C2310      C2311   1.407   1_565  A
C2310      H2315   1.084       .  S
C2311      C2312   1.411       .  A
C2312     Br2313   1.920       .  S
C2317      C2318   1.405       .  A
C2317      H2324   1.083       .  S
C2319      C2320   1.410       .  A
C2319     Br2326   1.920       .  S
C2320      C2321   1.402       .  A
C2320      H2325   1.084       .  S
C2321      C2322   1.408       .  A
C2322     Br2323   1.913       .  S
C2327      C2332   1.391       .  A
C2327      H2334   1.084       .  S
C2328      C3161   1.416       .  A
C2329      C3160   1.416       .  A
C2329     Br2336   1.925       .  S
C2330      C2331   1.402       .  A
C2330      H2335   1.084       .  S
C2331      C3164   1.411       .  A
C2332      C3163   1.411   1_545  A
C2332     Br2333   1.925       .  S
C2337      C2338   1.403       .  A
C2337      C2342   1.403       .  A
C2337      H2344   1.084       .  S
C2338      C2339   1.412       .  A
C2339      C2340   1.400       .  A
C2339     Br2346   1.916       .  S
C2340      C2341   1.403       .  A
C2340      H2345   1.084       .  S
C2341      C2342   1.417       .  A
C2342     Br2343   1.922       .  S
C2347      C2348   1.405       .  A
C2347      C2352   1.405       .  A
C2347      H2354   1.083       .  S
C2348      C2349   1.423       .  A
C2349      C2350   1.399       .  A
C2349     Br2356   1.925       .  S
C2350      C2351   1.402       .  A
C2350      H2355   1.084       .  S
C2351      C2352   1.420       .  A
C2352     Br2353   1.919       .  S
C2357      C2358   1.403       .  A
C2357      C2362   1.398       .  A
C2357      H2364   1.084       .  S
C2358      C2359   1.421       .  A
C2359      C2360   1.404       .  A
C2359     Br2366   1.922       .  S
C2360      C2361   1.405       .  A
C2360      H2365   1.084       .  S
C2361      C2362   1.421       .  A
C2362     Br2363   1.925       .  S
C2367      C2368   1.408       .  A
C2367      C2372   1.400       .  A
C2367      H2374   1.084       .  S
C2368      C2369   1.413       .  A
C2369      C2370   1.402       .  A
C2369     Br2376   1.921       .  S
C2370      C2371   1.408       .  A
C2370      H2375   1.084       .  S
C2371      C2372   1.408       .  A
C2372     Br2373   1.918       .  S
C2377      C2378   1.411       .  A
C2377      H2384   1.083       .  S
C2379      C2380   1.389       .  A
C2380      C2381   1.410       .  A
C2380      H2385   1.083       .  S
C2381      C2382   1.397       .  A
C2382     Br2383   1.917       .  S
C2387      C2392   1.399       .  A
C2387      H2394   1.083       .  S
C2388      C2389   1.402       .  A
C2389     Br2396   1.918       .  S
C2390      C2391   1.412       .  A
C2390      H2395   1.083       .  S
C2391      C2392   1.413       .  A
C2392     Br2393   1.922       .  S
C2397      C2398   1.401       .  A
C2397      C2402   1.400       .  A
C2397      H2404   1.084       .  S
C2398      C2538   1.472       .  S
C2398      C2399   1.407       .  A
C2399      C2400   1.400       .  A
C2399     Br3238   1.911       .  S
C2400      C2401   1.405       .  A
C2400      H2405   1.083       .  S
C2401      C2402   1.420       .  A
C2402     Br2403   1.924       .  S
Br2406     C3231   1.911       .  S
C2407      C2408   1.409       .  A
C2407      C2412   1.405       .  A
C2407      H2414   1.084       .  S
C2408      C2409   1.405       .  A
C2409      C2410   1.394       .  A
C2409     Br3248   1.920       .  S
C2410      C2411   1.408       .  A
C2410      H3247   1.081   1_545  S
C2411      C2412   1.415       .  A
C2412     Br2413   1.920       .  S
H2415      C3242   1.081       .  S
Br2416     C3241   1.920       .  S
C2417      C2418   1.401       .  A
C2417      C2422   1.402       .  A
C2417      H2424   1.080       .  S
C2418      C2419   1.401       .  A
C2419      C2420   1.405       .  A
C2419     Br2426   1.914       .  S
C2420      C2421   1.409       .  A
C2420      H2425   1.083       .  S
C2421      C2422   1.411       .  A
C2422     Br2423   1.919       .  S
C2427      C2428   1.398       .  A
C2427      C2432   1.388       .  A
C2427      H2434   1.084       .  S
C2428      C2429   1.412       .  A
C2429      C2430   1.390       .  A
C2429     Br2436   1.926       .  S
C2430      C2431   1.404       .  A
C2430      H2435   1.082       .  S
C2431      C2432   1.423       .  A
C2432     Br2433   1.927       .  S
C2437      C2438   1.411       .  A
C2437      C2442   1.403       .  A
C2437      H3276   1.084       .  S
C2438      C2516   1.482       .  S
C2438      C2439   1.412       .  A
C2439      C2440   1.399       .  A
C2439     Br2446   1.918       .  S
C2440      C2441   1.404       .  A
C2440      H2445   1.084       .  S
C2441      C2442   1.406       .  A
C2442     Br2443   1.918       .  S
H2444      C3269   1.084       .  S
C2447      C2448   1.412       .  A
C2447      C2452   1.403       .  A
C2447      H2454   1.083       .  S
C2448      C3281   1.415   1_545  A
C2449      C3280   1.415       .  A
C2449      C2450   1.397       .  A
C2449     Br2456   1.926       .  S
C2450      C3283   1.409       .  A
C2450      H2455   1.084       .  S
C2451      C3282   1.409   1_545  A
C2451      C2452   1.410       .  A
C2452     Br2453   1.919       .  S
C2457      C2458   1.393       .  A
C2457      C3294   1.386       .  A
C2457      H3296   1.085       .  S
C2458      C2459   1.413       .  A
C2459      C2460   1.407       .  A
C2459     Br2466   1.917       .  S
C2460      C2461   1.403       .  A
C2460      H2465   1.084       .  S
C2461      C3294   1.407       .  A
C2462      C3289   1.386       .  A
C2462      C3293   1.407       .  A
C2462     Br2463   1.899       .  S
H2464      C3289   1.085       .  S
C2467      C2468   1.402       .  A
C2467      C2472   1.400       .  A
C2467      H2474   1.084       .  S
C2468      C2469   1.414       .  A
C2469      C2470   1.403       .  A
C2469     Br2476   1.921   1_545  S
C2470      C2471   1.403       .  A
C2470      H2475   1.084       .  S
C2471      C2472   1.413       .  A
C2472     Br2473   1.920       .  S
C2477      C2482   1.406       .  A
C2477      H2484   1.084       .  S
C2478      C2479   1.416       .  A
C2479      C2480   1.399       .  A
C2479     Br2486   1.920       .  S
C2480      H2485   1.084       .  S
C2481      C2482   1.411       .  A
C2482     Br2483   1.919       .  S
C2487      C2488   1.404       .  A
C2487      C2492   1.396       .  A
C2487      H2494   1.083       .  S
C2488      C2489   1.404       .  A
C2489      C2490   1.385       .  A
C2489     Br2496   1.912       .  S
C2490      C2491   1.400       .  A
C2490      H2495   1.084       .  S
C2491      C2492   1.409       .  A
C2492     Br2493   1.921       .  S
O2497     Al2505   1.931   1_545  S
C2498      O2499   1.261       .  A
C2498      C3280   1.491       .  S
O2499     Al2501   1.889       .  S
O2500     Al2501   1.940       .  S
O2500      C2502   1.270       .  A
Al2501     O2509   1.977       .  S
Al2501     O2511   1.895       .  S
C2502      C3300   1.483       .  S
O2503     Al2505   1.939       .  S
O2503      C2513   1.263       .  A
O2504     Al2514   1.930       .  S
O2504      C2517   1.267       .  A
Al2505     O2518   1.914       .  S
Al2505     O2515   1.901       .  S
Al2505     O2510   1.775       .  S
O2506     Al2514   1.843       .  S
O2506      C2513   1.248       .  A
O2507     Al2514   1.866       .  S
O2508     Al2514   1.938       .  S
O2509      C2516   1.272       .  A
O2510     Al2514   1.746       .  S
O2511      C2512   1.270       .  A
C2513      C3320   1.455       .  S
C2517      O2518   1.269       .  A
C2517      C3313   1.482   1_655  S
O2519     Al2527   1.911       .  S
O2519      C2534   1.266       .  A
C2520      O2530   1.262       .  A
C2520      C3293   1.472       .  S
O2521     Al2523   1.943       .  S
O2522     Al2523   1.863       .  S
O2522      C2524   1.250       .  A
Al2523     O2531   1.868       .  S
Al2523     O2533   1.938       .  S
Al2523     O2532   1.759       .  S
C2524      O2537   1.265       .  A
C2524      C3260   1.467       .  S
O2525     Al2527   1.888       .  S
O2526     Al2536   1.923       .  S
O2526      C2539   1.271       .  A
Al2527     O2540   1.911       .  S
Al2527     O2537   1.916       .  S
Al2527     O2532   1.765       .  S
O2528     Al2536   1.950       .  S
O2528      C2535   1.270       .  A
O2529     Al2536   1.974       .  S
O2529      C2538   1.272       .  A
O2530     Al2536   1.895       .  S
O2533      C2534   1.265       .  A
C2534      C3250   1.475       .  S
C2535      C3243   1.493       .  S
C2539      C3283   1.489       .  S
O2541     Al2549   1.911       .  S
O2541      C2556   1.267       .  A
C2542      O2552   1.259       .  A
C2542      O2543   1.271       .  A
C2542      C3190   1.496       .  S
O2543     Al2545   1.940       .  S
O2544     Al2545   1.870       .  S
O2544      C2546   1.251       .  A
Al2545     O2553   1.860       .  S
Al2545     O2555   1.937       .  S
Al2545     O2554   1.753       .  S
C2546      O2559   1.263       .  A
C2546      C3210   1.464       .  S
O2547     Al2549   1.895       .  S
O2547      C2557   1.265       .  A
O2548     Al2558   1.932       .  S
O2548      C2561   1.275       .  A
Al2549     O2562   1.920       .  S
Al2549     O2559   1.924       .  S
Al2549     O2554   1.764       .  S
O2550     Al2558   1.944       .  S
O2550      C2557   1.271       .  A
O2551     Al2558   1.978       .  S
O2551      C2560   1.272       .  A
O2552     Al2558   1.895       .  S
O2553      C2560   1.250       .  A
O2554     Al2558   1.775       .  S
O2555      C2556   1.267       .  A
C2556      C3220   1.471       .  S
C2557      C3200   1.488       .  S
C2560      C3170   1.477       .  S
C2561      O2562   1.265       .  A
C2561      C3180   1.498       .  S
O2563     Al2571   1.923       .  S
O2563      C2578   1.266       .  A
C2564      O2574   1.270   1_565  A
C2564      C3183   1.496       .  S
O2565     Al2567   1.899       .  S
O2566     Al2567   1.951       .  S
O2566      C2568   1.273       .  A
Al2567     O2575   1.982       .  S
Al2567     O2577   1.927       .  S
Al2567     O2576   1.771       .  S
C2568      O2581   1.265       .  A
C2568      C3143   1.485       .  S
O2569     Al2571   1.941       .  S
O2569      C2579   1.264       .  A
O2570     Al2580   1.955       .  S
O2570      C2583   1.270       .  A
Al2571     O2584   1.903       .  S
Al2571     O2581   1.888       .  S
Al2571     O2576   1.769       .  S
O2572     Al2580   1.861       .  S
O2572      C2579   1.244       .  A
O2573     Al2580   1.850       .  S
O2573      C2582   1.249       .  A
O2575      C2582   1.274       .  A
O2576     Al2580   1.747       .  S
O2577      C2578   1.274       .  A
C2578      C3193   1.495       .  S
C2579      C3160   1.472       .  S
C2582      C3303   1.475       .  S
C2583      O2584   1.269       .  A
C2583      C3150   1.497       .  S
O2585     Al2593   1.931       .  S
O2585      C2600   1.271       .  A
C2586      O2596   1.270       .  A
C2586      O2587   1.259       .  A
C2586      C3093   1.496       .  S
O2587     Al2589   1.898       .  S
O2588     Al2589   1.944       .  S
O2588      C2590   1.271       .  A
Al2589     O2597   1.965       .  S
Al2589     O2599   1.910       .  S
Al2589     O2598   1.771       .  S
C2590      O2603   1.265       .  A
C2590      C3113   1.487       .  S
O2591     Al2593   1.948       .  S
O2591      C2601   1.263       .  A
O2592     Al2602   1.963       .  S
O2592      C2605   1.273       .  A
Al2593     O2606   1.906       .  S
Al2593     O2603   1.895       .  S
Al2593     O2598   1.774       .  S
O2594     Al2602   1.869       .  S
O2594      C2601   1.247       .  A
O2595     Al2602   1.857       .  S
O2595      C2604   1.252       .  A
O2596     Al2602   1.940       .  S
O2597      C2604   1.271       .  A
O2598     Al2602   1.746       .  S
O2599      C2600   1.268       .  A
C2600      C3103   1.495       .  S
C2601      C3133   1.479       .  S
C2604      C3080   1.475       .  S
C2605      O2606   1.267       .  A
C2605      C3120   1.493       .  S
O2607     Al2615   1.909       .  S
O2607      C2622   1.267       .  A
C2608      O2618   1.262       .  A
C2608      O2609   1.267       .  A
C2608      C3100   1.491       .  S
O2609     Al2611   1.936       .  S
O2610     Al2611   1.861       .  S
O2610      C2612   1.248       .  A
Al2611     O2619   1.862       .  S
Al2611     O2621   1.944       .  S
Al2611     O2620   1.752       .  S
C2612      O2625   1.264       .  A
C2612      C3073   1.464       .  S
O2613     Al2615   1.892       .  S
O2613      C2623   1.263       .  A
O2614     Al2624   1.927       .  S
O2614      C2627   1.273       .  A
Al2615     O2628   1.923       .  S
Al2615     O2625   1.926       .  S
Al2615     O2620   1.767       .  S
O2616     Al2624   1.947       .  S
O2616      C2623   1.273       .  A
O2617     Al2624   1.970       .  S
O2617      C2626   1.271       .  A
O2618     Al2624   1.894       .  S
O2619      C2626   1.251       .  A
O2620     Al2624   1.774       .  S
O2621      C2622   1.269       .  A
C2622      C3063   1.490       .  S
C2623      C3173   1.487       .  S
C2626      C3050   1.476       .  S
C2627      O2628   1.266       .  A
O2629     Al2637   1.907       .  S
O2629      C2644   1.260       .  A
C2630      O2640   1.264       .  A
C2630      O2631   1.260       .  A
C2630      C3010   1.485       .  S
O2631     Al2633   1.899       .  S
O2632     Al2633   1.954   1_554  S
O2632      C2634   1.275       .  A
Al2633     O2641   1.978       .  S
Al2633     O2643   1.925   1_556  S
Al2633     O2642   1.769   1_556  S
C2634      O2647   1.263       .  A
C2634      C3023   1.491       .  S
O2635     Al2637   1.925       .  S
O2635      C2645   1.262       .  A
O2636     Al2646   1.939       .  S
O2636      C2649   1.267       .  A
Al2637     O2650   1.913       .  S
Al2637     O2647   1.884       .  S
Al2637     O2642   1.771       .  S
O2638     Al2646   1.875   1_554  S
O2638      C2645   1.251       .  A
O2639     Al2646   1.849       .  S
O2639      C2648   1.251       .  A
O2640     Al2646   1.923       .  S
O2641      C2648   1.274       .  A
O2642     Al2646   1.754   1_554  S
O2643      C2644   1.271       .  A
C2644      C3000   1.493       .  S
C2645      C3033   1.472       .  S
C2648      C3110   1.475       .  S
C2649      O2650   1.268   1_556  A
C2649      C3040   1.474       .  S
O2651     Al2659   1.900       .  S
O2651      C2666   1.264   1_556  A
C2652      O2653   1.273   1_565  A
C2652      C3003   1.492       .  S
O2654     Al2655   1.851       .  S
O2654      C2656   1.239   1_554  A
Al2655     O2663   1.862       .  S
Al2655     O2665   1.969       .  S
Al2655     O2664   1.741       .  S
C2656      O2669   1.268       .  A
C2656      C2993   1.473   1_556  S
O2657     Al2659   1.897       .  S
O2657      C2667   1.265       .  A
O2658     Al2668   1.887       .  S
O2658      C2671   1.270   1_554  A
Al2659     O2672   1.940       .  S
Al2659     O2669   1.967       .  S
Al2659     O2664   1.771   1_556  S
O2660     Al2668   1.937   1_556  S
O2660      C2667   1.269       .  A
O2661     Al2668   1.978       .  S
O2661      C2670   1.273       .  A
O2662     Al2668   1.881       .  S
O2663      C2670   1.250       .  A
O2664     Al2668   1.771       .  S
O2665      C2666   1.273       .  A
C2666      C2980   1.491       .  S
C2667      C2973   1.482       .  S
C2670      C3240   1.476       .  S
C2671      O2672   1.272       .  A
C2671      C3013   1.487       .  S
O2673     Al2681   1.935       .  S
O2673      C2688   1.270       .  A
C2674      O2684   1.273       .  A
C2674      O2675   1.259       .  A
C2674      C2960   1.497       .  S
O2675     Al2677   1.891       .  S
O2676     Al2677   1.943       .  S
O2676      C2678   1.269       .  A
Al2677     O2685   1.971       .  S
Al2677     O2687   1.905       .  S
Al2677     O2686   1.775       .  S
C2678      O2691   1.262       .  A
C2678      C3083   1.482       .  S
O2679     Al2681   1.940       .  S
O2679      C2689   1.265       .  A
O2680     Al2690   1.962       .  S
O2680      C2693   1.271       .  A
Al2681     O2694   1.898       .  S
Al2681     O2691   1.885       .  S
Al2681     O2686   1.767       .  S
O2682     Al2690   1.861       .  S
O2682      C2689   1.247       .  A
O2683     Al2690   1.862       .  S
O2683      C2692   1.251       .  A
O2684     Al2690   1.952       .  S
O2685      C2692   1.271       .  A
O2686     Al2690   1.749       .  S
O2687      C2688   1.271       .  A
C2688      C2950   1.494       .  S
C2689      C3213   1.464       .  S
C2692      C2940   1.475       .  S
C2693      O2694   1.263       .  A
C2693      C3153   1.482       .  S
O2695     Al2703   1.908       .  S
O2695      C2710   1.267       .  A
C2696      C2953   1.492       .  S
O2697     Al2699   1.932       .  S
O2698     Al2699   1.865       .  S
O2698      C2700   1.248       .  A
Al2699     O2707   1.855       .  S
Al2699     O2709   1.938       .  S
Al2699     O2708   1.752       .  S
C2700      O2713   1.264       .  A
C2700      C3163   1.467       .  S
O2701     Al2703   1.882       .  S
O2701      C2711   1.261       .  A
O2702     Al2712   1.926       .  S
O2702      C2715   1.272       .  A
Al2703     O2716   1.918       .  S
Al2703     O2713   1.925       .  S
Al2703     O2708   1.771       .  S
O2704     Al2712   1.948       .  S
O2704      C2711   1.274       .  A
O2705     Al2712   1.979       .  S
O2705      C2714   1.273       .  A
O2706     Al2712   1.896       .  S
O2707      C2714   1.251       .  A
O2708     Al2712   1.773       .  S
O2709      C2710   1.269       .  A
C2710      C3223   1.488       .  S
C2711      C3233   1.489       .  S
C2714      C2930   1.479       .  S
C2715      O2716   1.264       .  A
C2715      C2963   1.498       .  S
O2717      C2732   1.273       .  A
C2718      O2719   1.260       .  A
C2718      C2900   1.499       .  S
O2719     Al2721   1.897       .  S
O2720     Al2721   1.949       .  S
O2720      C2722   1.271       .  A
Al2721     O2729   1.976       .  S
Al2721     O2731   1.909       .  S
C2722      O2735   1.264       .  A
C2722      C2920   1.484       .  S
O2723     Al2725   1.948       .  S
O2723      C2733   1.266       .  A
O2724     Al2734   1.955       .  S
O2724      C2737   1.270       .  A
Al2725     O2738   1.903       .  S
Al2725     O2730   1.771       .  S
O2726     Al2734   1.852       .  S
O2726      C2733   1.244       .  A
O2727     Al2734   1.861       .  S
O2728     Al2734   1.948       .  S
O2729      C2736   1.272       .  A
O2730     Al2734   1.747       .  S
O2731      C2732   1.269       .  A
C2732      C2913   1.496       .  S
C2733      C3070   1.469       .  S
C2736      C3140   1.480       .  S
C2737      O2738   1.266       .  A
C2737      C3123   1.485       .  S
O2739     Al2747   1.913       .  S
O2739      C2754   1.267       .  A
C2740      O2750   1.262       .  A
C2740      C2910   1.488       .  S
O2741     Al2743   1.926       .  S
O2742     Al2743   1.873       .  S
O2742      C2744   1.250       .  A
Al2743     O2751   1.854       .  S
Al2743     O2753   1.944       .  S
C2744      O2757   1.264       .  A
C2744      C3130   1.476       .  S
O2745      C2755   1.266       .  A
O2746     Al2756   1.925       .  S
O2746      C2759   1.272       .  A
Al2747     O2757   1.938       .  S
O2748     Al2756   1.943       .  S
O2748      C2755   1.271       .  A
O2749     Al2756   1.967       .  S
O2749      C2758   1.271       .  A
O2750     Al2756   1.900       .  S
O2752     Al2756   1.771       .  S
O2753      C2754   1.268       .  A
C2754      C3060   1.474       .  S
C2755      C2933   1.489       .  S
C2758      C2970   1.473       .  S
C2759      O2760   1.266       .  A
O2761     Al2769   1.933       .  S
O2761      C2776   1.270       .  A
C2762      O2772   1.273       .  A
C2762      O2763   1.262       .  A
C2762      C2880   1.498       .  S
O2763     Al2765   1.901       .  S
O2764     Al2765   1.945       .  S
O2764      C2766   1.271       .  A
Al2765     O2773   1.980       .  S
Al2765     O2775   1.920       .  S
Al2765     O2774   1.775       .  S
C2766      O2779   1.262       .  A
C2766      C2943   1.483       .  S
O2767     Al2769   1.944       .  S
O2767      C2777   1.266       .  A
O2768     Al2778   1.950       .  S
O2768      C2781   1.269       .  A
Al2769     O2782   1.905       .  S
Al2769     O2779   1.888       .  S
Al2769     O2774   1.768       .  S
O2770     Al2778   1.861       .  S
O2770      C2777   1.243       .  A
O2771     Al2778   1.867       .  S
O2771      C2780   1.249       .  A
O2772     Al2778   1.948       .  S
O2773      C2780   1.272       .  A
O2774     Al2778   1.743       .  S
O2775      C2776   1.275       .  A
C2777      C3263   1.477       .  S
C2780      C3020   1.475       .  S
C2781      O2782   1.265       .  A
C2781      C3310   1.488       .  S
O2783     Al2791   1.901       .  S
O2783      C2798   1.267       .  A
C2784      O2794   1.259       .  A
C2784      O2785   1.269       .  A
C2784      C2893   1.496       .  S
O2785     Al2787   1.935       .  S
O2786     Al2787   1.864       .  S
O2786      C2788   1.248       .  A
Al2787     O2795   1.854       .  S
Al2787     O2797   1.949       .  S
Al2787     O2796   1.753       .  S
C2788      O2801   1.264       .  A
C2788      C3323   1.456       .  S
O2789     Al2791   1.892       .  S
O2789      C2799   1.263       .  A
O2790     Al2800   1.928       .  S
O2790      C2803   1.273       .  A
Al2791     O2804   1.924       .  S
Al2791     O2801   1.930       .  S
Al2791     O2796   1.766       .  S
O2792     Al2800   1.947       .  S
O2792      C2799   1.273       .  A
O2793     Al2800   1.977       .  S
O2793      C2802   1.272       .  A
O2794     Al2800   1.895       .  S
O2795      C2802   1.250       .  A
O2796     Al2800   1.773       .  S
O2797      C2798   1.270       .  A
C2798      C3253   1.488       .  S
C2799      C2870   1.491       .  S
C2802      C3203   1.476       .  S
C2803      O2804   1.265       .  A
C2803      C2883   1.500       .  S
O2805     Al2813   1.908       .  S
O2805      C2820   1.269   1_556  A
C2806      O2816   1.259       .  A
C2806      O2807   1.270       .  A
C2806      C2863   1.490       .  S
O2807     Al2809   1.940       .  S
O2808     Al2809   1.867       .  S
O2808      C2810   1.248   1_554  A
Al2809     O2817   1.864       .  S
Al2809     O2819   1.956       .  S
Al2809     O2818   1.744       .  S
C2810      O2823   1.261       .  A
C2810      C3030   1.474       .  S
O2811     Al2813   1.891       .  S
O2811      C2821   1.264       .  A
O2812     Al2822   1.917       .  S
O2812      C2825   1.271   1_554  A
Al2813     O2826   1.917       .  S
Al2813     O2823   1.936       .  S
Al2813     O2818   1.771   1_556  S
O2814     Al2822   1.949   1_556  S
O2814      C2821   1.273       .  A
O2815     Al2822   1.977       .  S
O2815      C2824   1.273       .  A
O2816     Al2822   1.892       .  S
O2817      C2824   1.251       .  A
O2818     Al2822   1.773       .  S
O2819      C2820   1.271       .  A
C2820      C2983   1.490       .  S
C2821      C3053   1.484       .  S
C2824      C2873   1.475       .  S
C2825      O2826   1.269       .  A
C2825      C2853   1.491       .  S
O2827     Al2835   1.870       .  S
O2827      C2842   1.253       .  A
C2828      C2850   1.469       .  S
O2829     Al2831   1.919       .  S
O2830     Al2831   1.909   1_554  S
O2830      C2832   1.256       .  A
Al2831     O2839   1.941       .  S
Al2831     O2841   1.921   1_556  S
Al2831     O2840   1.818       .  S
C2832      O2845   1.253       .  A
C2832      C3273   1.479       .  S
O2833     Al2835   1.896       .  S
O2833      C2843   1.247       .  A
O2834     Al2844   1.906       .  S
O2834      C2847   1.266       .  A
Al2835     O2848   1.911       .  S
Al2835     O2845   1.876       .  S
Al2835     O2840   1.805   1_554  S
O2836     Al2844   1.806       .  S
O2836      C2843   1.238   1_556  A
O2837     Al2844   1.816       .  S
O2837      C2846   1.238       .  A
O2838     Al2844   1.875       .  S
O2839      C2846   1.258       .  A
O2840     Al2844   1.795       .  S
O2841      C2842   1.265       .  A
C2842      C2860   1.489       .  S
C2843      C2990   1.443       .  S
C2846      C2923   1.467       .  S
C2847      O2848   1.266   1_556  A
C2847      C3043   1.471       .  S
C2849      C2850   1.404       .  A
C2849      C2854   1.403   1_556  A
C2849      H2856   1.084   1_556  S
C2850      C2851   1.402       .  A
C2851      C2852   1.393       .  A
C2851     Br2858   1.922       .  S
C2852      C2853   1.412       .  A
C2852      H2857   1.083       .  S
C2853      C2854   1.417   1_556  A
C2854     Br2855   1.921       .  S
C2859      C2860   1.403       .  A
C2859      C2864   1.402       .  A
C2859      H2866   1.084   1_554  S
C2860      C2861   1.419       .  A
C2861      C2862   1.397       .  A
C2861     Br2868   1.924       .  S
C2862      C2863   1.403       .  A
C2862      H2867   1.084       .  S
C2863      C2864   1.419       .  A
C2864     Br2865   1.919   1_554  S
C2869      C2870   1.406       .  A
C2869      C2874   1.401       .  A
C2869      H2876   1.083       .  S
C2870      C2871   1.419       .  A
C2871      C2872   1.402       .  A
C2871     Br2878   1.923       .  S
C2872      C2873   1.402       .  A
C2872      H2877   1.084       .  S
C2873      C2874   1.408       .  A
C2874     Br2875   1.916       .  S
C2879      C2880   1.404       .  A
C2879      C2884   1.400       .  A
C2879      H2886   1.084       .  S
C2880      C2881   1.420       .  A
C2881      C2882   1.405       .  A
C2881     Br2888   1.920       .  S
C2882      C2883   1.406       .  A
C2882      H2887   1.083       .  S
C2883      C2884   1.423       .  A
C2884     Br2885   1.924       .  S
C2889      C2890   1.405       .  A
C2889      C2894   1.404       .  A
C2889      H2896   1.084       .  S
C2890      C2891   1.421       .  A
C2891      C2892   1.399       .  A
C2891     Br2898   1.923       .  S
C2892      C2893   1.404       .  A
C2892      H2897   1.084       .  S
C2893      C2894   1.419       .  A
C2894     Br2895   1.921       .  S
C2899      H2906   1.084       .  S
C2900      C2901   1.420       .  A
C2901      C2902   1.405       .  A
C2901     Br2908   1.922       .  S
C2902      C2903   1.405       .  A
C2902      H2907   1.083       .  S
C2903      C2904   1.421       .  A
C2909      C2910   1.408       .  A
C2909      C2914   1.403       .  A
C2909      H2916   1.084       .  S
C2910      C2911   1.412       .  A
C2911      C2912   1.399       .  A
C2912      C2913   1.410       .  A
C2912      H2917   1.083       .  S
C2913      C2914   1.417       .  A
C2914     Br2915   1.922       .  S
C2919      C2920   1.403       .  A
C2919      C2924   1.403       .  A
C2919      H2926   1.084       .  S
C2920      C2921   1.414       .  A
C2921      C2922   1.402       .  A
C2921     Br2928   1.922       .  S
C2922      C2923   1.403       .  A
C2922      H2927   1.084       .  S
C2923      C2924   1.411       .  A
C2924     Br2925   1.919       .  S
C2929      C2930   1.408       .  A
C2929      C2934   1.402       .  A
C2929      H2936   1.084       .  S
C2930      C2931   1.409       .  A
C2931      C2932   1.401       .  A
C2932      C2933   1.408       .  A
C2933      C2934   1.413       .  A
C2934     Br2935   1.921       .  S
C2939      C2940   1.402       .  A
C2939      C2944   1.400       .  A
C2939      H2946   1.084       .  S
C2940      C2941   1.412       .  A
C2941      C2942   1.399       .  A
C2941     Br2948   1.921       .  S
C2942      C2943   1.403       .  A
C2942      H2947   1.084       .  S
C2943      C2944   1.416       .  A
C2944     Br2945   1.923       .  S
C2949      C2950   1.405       .  A
C2949      C2954   1.400       .  A
C2949      H2956   1.083       .  S
C2950      C2951   1.419       .  A
C2951      C2952   1.400       .  A
C2951     Br2958   1.921       .  S
C2952      C2953   1.405       .  A
C2952      H2957   1.084       .  S
C2953      C2954   1.417       .  A
C2954     Br2955   1.919       .  S
C2959      C2960   1.403       .  A
C2959      C2964   1.401       .  A
C2959      H2966   1.084       .  S
C2960      C2961   1.421       .  A
C2961      C2962   1.403       .  A
C2961     Br2968   1.920       .  S
C2962      C2963   1.404       .  A
C2962      H2967   1.084       .  S
C2963      C2964   1.423       .  A
C2964     Br2965   1.924       .  S
C2969      C2974   1.399       .  A
C2971      C2972   1.400       .  A
C2971     Br2978   1.919       .  S
C2972      C2973   1.407       .  A
C2972      H2977   1.084       .  S
C2973      C2974   1.412       .  A
C2974     Br2975   1.921       .  S
C2979      C2980   1.406       .  A
C2979      C2984   1.409       .  A
C2979      H2986   1.083       .  S
C2980      C2981   1.416   1_554  A
C2981      C2982   1.399       .  A
C2981     Br2988   1.921       .  S
C2982      C2983   1.402   1_556  A
C2982      H2987   1.084       .  S
C2983      C2984   1.414       .  A
C2984     Br2985   1.916       .  S
C2989      C2990   1.395       .  A
C2989      C2994   1.392       .  A
C2989      H2996   1.085       .  S
C2991      C2992   1.391   1_554  A
C2991     Br2998   1.919       .  S
C2992      C2993   1.404   1_556  A
C2992      H2997   1.080       .  S
C2994     Br2995   1.923       .  S
C2999      C3000   1.402       .  A
C2999      C3004   1.401       .  A
C2999      H3006   1.084   1_554  S
C3000      C3001   1.423       .  A
C3001      C3002   1.399       .  A
C3001     Br3008   1.925       .  S
C3002      C3003   1.401       .  A
C3002      H3007   1.084       .  S
C3003      C3004   1.420       .  A
C3004     Br3005   1.920   1_554  S
C3009      C3010   1.406       .  A
C3009      C3014   1.401       .  A
C3009      H3016   1.084       .  S
C3010      C3011   1.413   1_556  A
C3011      C3012   1.394       .  A
C3011     Br3018   1.912       .  S
C3012      C3013   1.403   1_554  A
C3012      H3017   1.084       .  S
C3013      C3014   1.416       .  A
C3014     Br3015   1.922       .  S
C3019      C3020   1.401       .  A
C3019      C3024   1.400       .  A
C3019      H3026   1.084       .  S
C3020      C3021   1.410       .  A
C3021      C3022   1.402       .  A
C3021     Br3028   1.918       .  S
C3022      C3023   1.406       .  A
C3022      H3027   1.083       .  S
C3023      C3024   1.420       .  A
C3024     Br3025   1.924       .  S
C3029      C3030   1.409   1_554  A
C3029      C3034   1.387       .  A
C3029      H3036   1.084       .  S
C3030      C3031   1.410       .  A
C3031      C3032   1.392       .  A
C3031     Br3038   1.923       .  S
C3032      C3033   1.409   1_556  A
C3032      H3037   1.084       .  S
C3033      C3034   1.407       .  A
C3034     Br3035   1.924       .  S
C3039      C3040   1.403       .  A
C3039      C3044   1.398       .  A
C3039      H3046   1.080       .  S
C3040      C3041   1.406       .  A
C3041      C3042   1.404       .  A
C3041     Br3048   1.920       .  S
C3042      C3043   1.406       .  A
C3042      H3047   1.084       .  S
C3043      C3044   1.405       .  A
C3044     Br3045   1.919       .  S
C3049      C3050   1.403       .  A
C3049      C3054   1.401       .  A
C3049      H3056   1.084       .  S
C3050      C3051   1.412       .  A
C3051      C3052   1.400       .  A
C3051     Br3058   1.920   1_655  S
C3052      C3053   1.403       .  A
C3052      H3057   1.084       .  S
C3053      C3054   1.415       .  A
C3054     Br3055   1.923       .  S
C3059      C3060   1.399       .  A
C3059      C3064   1.398       .  A
C3059      H3066   1.082       .  S
C3061      C3062   1.405   1_455  A
C3061     Br3068   1.919   1_455  S
C3062      C3063   1.412       .  A
C3062      H3067   1.084       .  S
C3064     Br3065   1.918       .  S
C3069      C3070   1.404       .  A
C3069      C3074   1.393       .  A
C3069      H3076   1.082       .  S
C3070      C3071   1.415       .  A
C3071      C3072   1.388       .  A
C3071     Br3078   1.922       .  S
C3072      C3073   1.400       .  A
C3072      H3077   1.084       .  S
C3073      C3074   1.410       .  A
C3074     Br3075   1.923       .  S
C3079      C3080   1.408       .  A
C3079      C3084   1.400       .  A
C3079      H3086   1.084       .  S
C3080      C3081   1.409       .  A
C3081      C3082   1.398       .  A
C3081     Br3088   1.920       .  S
C3082      C3083   1.407       .  A
C3082      H3087   1.084       .  S
C3083      C3084   1.411       .  A
C3084     Br3085   1.921       .  S
C3089      C3090   1.405       .  A
C3089      C3094   1.404       .  A
C3089      H3096   1.083       .  S
C3090      C3091   1.422       .  A
C3091      C3092   1.400       .  A
C3091     Br3098   1.924       .  S
C3092      C3093   1.403       .  A
C3092      H3097   1.084       .  S
C3093      C3094   1.419       .  A
C3094     Br3095   1.919       .  S
C3099      C3100   1.409       .  A
C3099      C3104   1.402       .  A
C3099      H3106   1.084       .  S
C3100      C3101   1.413       .  A
C3101      C3102   1.400       .  A
C3101     Br3108   1.922       .  S
C3102      C3103   1.410       .  A
C3102      H3107   1.083       .  S
C3103      C3104   1.416       .  A
C3104     Br3105   1.922       .  S
C3109      C3110   1.408       .  A
C3109      C3114   1.402       .  A
C3109      H3116   1.084       .  S
C3110      C3111   1.408       .  A
C3111      C3112   1.400       .  A
C3111     Br3118   1.918       .  S
C3112      C3113   1.407       .  A
C3112      H3117   1.084       .  S
C3113      C3114   1.412       .  A
C3114     Br3115   1.920       .  S
C3119      C3120   1.410       .  A
C3119      C3124   1.409       .  A
C3119      H3126   1.084       .  S
C3120      C3121   1.417       .  A
C3121      C3122   1.399       .  A
C3121     Br3128   1.922       .  S
C3122      C3123   1.401       .  A
C3122      H3127   1.084       .  S
C3123      C3124   1.409       .  A
C3124     Br3125   1.917       .  S
C3129      C3130   1.411       .  A
C3129      C3134   1.393       .  A
C3129      H3136   1.084       .  S
C3130      C3131   1.406       .  A
C3131      C3132   1.390       .  A
C3131     Br3138   1.922       .  S
C3132      C3133   1.411       .  A
C3132      H3137   1.083       .  S
C3133      C3134   1.407       .  A
C3134     Br3135   1.920       .  S
C3139      C3144   1.402       .  A
C3139      H3146   1.084       .  S
C3140      C3141   1.409       .  A
C3141     Br3148   1.918       .  S
C3142      C3143   1.407       .  A
C3142      H3147   1.084       .  S
C3143      C3144   1.411       .  A
C3144     Br3145   1.920       .  S
C3149      C3150   1.405       .  A
C3149      H3156   1.083       .  S
C3151      C3152   1.410       .  A
C3151     Br3158   1.920       .  S
C3152      C3153   1.402       .  A
C3152      H3157   1.084       .  S
C3153      C3154   1.408       .  A
C3154     Br3155   1.913       .  S
C3159      C3164   1.391       .  A
C3159      H3166   1.084       .  S
C3161     Br3168   1.925       .  S
C3162      C3163   1.402       .  A
C3162      H3167   1.084       .  S
C3164     Br3165   1.925       .  S
C3169      C3170   1.403       .  A
C3169      C3174   1.403       .  A
C3169      H3176   1.084       .  S
C3170      C3171   1.412       .  A
C3171      C3172   1.400       .  A
C3171     Br3178   1.916       .  S
C3172      C3173   1.403       .  A
C3172      H3177   1.084       .  S
C3173      C3174   1.417       .  A
C3174     Br3175   1.922       .  S
C3179      C3180   1.405       .  A
C3179      C3184   1.405       .  A
C3179      H3186   1.083       .  S
C3180      C3181   1.423       .  A
C3181      C3182   1.399       .  A
C3181     Br3188   1.925       .  S
C3182      C3183   1.402       .  A
C3182      H3187   1.084       .  S
C3183      C3184   1.420       .  A
C3184     Br3185   1.919       .  S
C3189      C3190   1.403       .  A
C3189      C3194   1.398       .  A
C3189      H3196   1.084       .  S
C3190      C3191   1.421       .  A
C3191      C3192   1.404       .  A
C3191     Br3198   1.922       .  S
C3192      C3193   1.405       .  A
C3192      H3197   1.084       .  S
C3193      C3194   1.421       .  A
C3194     Br3195   1.925       .  S
C3199      C3200   1.408       .  A
C3199      C3204   1.400       .  A
C3199      H3206   1.084       .  S
C3200      C3201   1.413       .  A
C3201      C3202   1.402       .  A
C3201     Br3208   1.921       .  S
C3202      C3203   1.408       .  A
C3202      H3207   1.084       .  S
C3203      C3204   1.408       .  A
C3204     Br3205   1.918       .  S
C3209      C3210   1.411       .  A
C3209      H3216   1.083       .  S
C3211      C3212   1.389       .  A
C3212      C3213   1.410       .  A
C3212      H3217   1.083       .  S
C3213      C3214   1.397       .  A
C3214     Br3215   1.917       .  S
C3219      C3224   1.399       .  A
C3219      H3226   1.083       .  S
C3220      C3221   1.402       .  A
C3221     Br3228   1.918       .  S
C3222      C3223   1.412       .  A
C3222      H3227   1.083       .  S
C3223      C3224   1.413       .  A
C3224     Br3225   1.922       .  S
C3229      C3230   1.401       .  A
C3229      C3234   1.400   1_545  A
C3229      H3236   1.084       .  S
C3230      C3231   1.407   1_545  A
C3231      C3232   1.400       .  A
C3232      C3233   1.405       .  A
C3232      H3237   1.083       .  S
C3233      C3234   1.420       .  A
C3234     Br3235   1.924   1_565  S
C3239      C3240   1.409       .  A
C3239      C3244   1.405       .  A
C3239      H3246   1.084       .  S
C3240      C3241   1.405       .  A
C3241      C3242   1.394       .  A
C3242      C3243   1.408       .  A
C3243      C3244   1.415       .  A
C3244     Br3245   1.920       .  S
C3249      C3250   1.401       .  A
C3249      C3254   1.402       .  A
C3249      H3256   1.080       .  S
C3250      C3251   1.401       .  A
C3251      C3252   1.405       .  A
C3251     Br3258   1.914       .  S
C3252      C3253   1.409       .  A
C3252      H3257   1.083       .  S
C3253      C3254   1.411       .  A
C3254     Br3255   1.919       .  S
C3259      C3260   1.398       .  A
C3259      C3264   1.388       .  A
C3259      H3266   1.084       .  S
C3260      C3261   1.412       .  A
C3261      C3262   1.390       .  A
C3261     Br3268   1.926       .  S
C3262      C3263   1.404       .  A
C3262      H3267   1.082       .  S
C3263      C3264   1.423       .  A
C3264     Br3265   1.927       .  S
C3269      C3270   1.411   1_565  A
C3269      C3274   1.403       .  A
C3270      C3271   1.412       .  A
C3271      C3272   1.399       .  A
C3271     Br3278   1.918       .  S
C3272      C3273   1.404   1_545  A
C3272      H3277   1.084       .  S
C3273      C3274   1.406       .  A
C3274     Br3275   1.918       .  S
C3279      C3280   1.412       .  A
C3279      C3284   1.403       .  A
C3279      H3286   1.083       .  S
C3281      C3282   1.397       .  A
C3281     Br3288   1.926       .  S
C3282      H3287   1.084       .  S
C3283      C3284   1.410       .  A
C3284     Br3285   1.919       .  S
C3289      C3290   1.393       .  A
C3290      C3291   1.413       .  A
C3291      C3292   1.407       .  A
C3291     Br3298   1.917       .  S
C3292      C3293   1.403       .  A
C3292      H3297   1.084       .  S
C3294     Br3295   1.899   1_545  S
C3299      C3300   1.402       .  A
C3299      C3304   1.400       .  A
C3299      H3306   1.084       .  S
C3300      C3301   1.414       .  A
C3301      C3302   1.403       .  A
C3301     Br3308   1.921       .  S
C3302      C3303   1.403       .  A
C3302      H3307   1.084       .  S
C3303      C3304   1.413       .  A
C3304     Br3305   1.920       .  S
C3309      C3314   1.406       .  A
C3309      H3316   1.084       .  S
C3310      C3311   1.416       .  A
C3311      C3312   1.399       .  A
C3311     Br3318   1.920       .  S
C3312      H3317   1.084       .  S
C3313      C3314   1.411       .  A
C3314     Br3315   1.919       .  S
C3319      C3320   1.404       .  A
C3319      C3324   1.396       .  A
C3319      H3326   1.083       .  S
C3320      C3321   1.404       .  A
C3321      C3322   1.385       .  A
C3321     Br3328   1.912       .  S
C3322      C3323   1.400       .  A
C3322      H3327   1.084       .  S
C3323      C3324   1.409       .  A
C3324     Br3325   1.921       .  S
