geometry optimzed in LAMMPS
_audit_creation_date              2020-11-30 
_audit_creation_method            'lammps2cif' 
_symmetry_space_group_name_H-M    'P1' 
_symmetry_Int_Tables_number       1 
_symmetry_cell_setting            triclinic 
loop_ 
_symmetry_equiv_pos_as_xyz 
  x,y,z 
_cell_length_a                    43.82057116134306 
_cell_length_b                    43.97781902567053 
_cell_length_c                    42.66602705867381 
_cell_angle_alpha                 90.40311764273002 
_cell_angle_beta                  90.8796695595236 
_cell_angle_gamma                 89.89649375751313 
loop_ 
_atom_site_label 
_atom_site_type_symbol 
_atom_site_fract_x 
_atom_site_fract_y 
_atom_site_fract_z 
_atom_site_charge 
O1          O  0.47810639  0.49856314  0.28529202    -0.81450
C2          C  0.37699494  0.01348559  0.21418063     0.97900
O3          O  0.39145942  0.02837110  0.23512461    -0.70570
O4          O  0.42792563  0.03367402  0.28549697    -0.74160
Al5        Al  0.43468835  0.02894955  0.23972870     1.48980
C6          C  0.41640224  0.01459120  0.30433133     0.93160
O7          O  0.42095814  0.43423139  0.26630619    -0.80380
O8          O  0.45550780  0.43591012  0.20982087    -0.73940
Al9        Al  0.44754140  0.46861422  0.27315146     1.90120
O10         O  0.39614307  0.44607006  0.22339565    -0.73010
O11         O  0.45647204  0.48903958  0.18417421    -0.72860
O12         O  0.39161416  0.49609775  0.19546060    -0.78520
O13         O  0.43864108  0.03387992  0.19276354    -0.76720
O14         O  0.43589507  0.48831465  0.23959621    -1.12850
O15         O  0.47873915  0.03030543  0.24561694    -0.72050
C16         C  0.49271552  0.01717048  0.26835601     0.98670
C17         C  0.40147197  0.42800120  0.24504286     0.95070
Al18       Al  0.42598363  0.46859756  0.20529794     1.55560
O19         O  0.41592925  0.48685824  0.29677057    -0.76670
C20         C  0.44841752  0.01401020  0.17338340     0.99230
C21         C  0.47618277  0.43035265  0.23000379     0.94110
O22         O  0.47980823  0.44752701  0.25349926    -0.81990
O23         O  0.22581777  0.43730043  0.24830056    -0.81450
C24         C  0.12675101  0.01078988  0.28263888     0.97900
O25         O  0.13772084  0.48987963  0.29985658    -0.70570
O26         O  0.13796935  0.44604751  0.26099815    -0.74160
Al27       Al  0.16804350  0.45925785  0.28926256     1.48980
C28         C  0.14557465  0.42384855  0.24471869     0.93160
O29         O  0.16965970  0.48263878  0.20008840    -0.80380
O30         O  0.23229705  0.01845961  0.25917000    -0.73940
Al31       Al  0.19754583  0.46084851  0.22537669     1.90120
O32         O  0.18191524  0.02769064  0.21814789    -0.73010
O33         O  0.19272006  0.02079722  0.30881335    -0.72860
O34         O  0.14467514  0.02473829  0.26487398    -0.78520
O35         O  0.19665309  0.47221863  0.31923514    -0.76720
O36         O  0.18521840  0.48010527  0.25947530    -1.12850
O37         O  0.19445853  0.42274108  0.28457367    -0.72050
C38         C  0.21804435  0.41779786  0.26816590     0.98670
C39         C  0.16723438  0.01118739  0.19849298     0.95070
Al40       Al  0.18813884  0.02014911  0.26268705     1.55560
O41         O  0.16806684  0.42720622  0.22671977    -0.76670
C42         C  0.19699282  0.99937048  0.32839272     0.99230
C43         C  0.24586050  0.00569729  0.23638562     0.94110
O44         O  0.23100981  0.48842427  0.21763241    -0.81990
O45         O  0.43540199  0.33760689  0.49792391    -0.81450
C46         C  0.37629099  0.23283785  0.53705223     0.97900
O47         O  0.39951453  0.24337648  0.55154156    -0.70570
O48         O  0.43579547  0.24755169  0.50629047    -0.74160
Al49       Al  0.42602855  0.27587658  0.53702776     1.48980
C50         C  0.45432544  0.25662304  0.48669042     0.93160
O51         O  0.38930348  0.27774231  0.45722559    -0.80380
O52         O  0.35959327  0.33717361  0.52096942    -0.73940
Al53       Al  0.41186040  0.30731223  0.47768917     1.90120
O54         O  0.34528892  0.28880460  0.47907110    -0.73010
O55         O  0.36872969  0.29484610  0.57005230    -0.72860
O56         O  0.35803359  0.25046960  0.52328273    -0.78520
O57         O  0.41728444  0.30352684  0.56793037    -0.76720
O58         O  0.39927033  0.29258036  0.51289855    -1.12850
O59         O  0.45928506  0.30486475  0.52820101    -0.72050
C60         C  0.45817893  0.33070303  0.51486677     0.98670
C61         C  0.36054623  0.27771732  0.45634289     0.95070
Al62       Al  0.36024846  0.29325011  0.52302561     1.55560
O63         O  0.44827255  0.28124469  0.47257396    -0.76670
C64         C  0.39450118  0.29921259  0.58412231     0.99230
C65         C  0.36574361  0.35117107  0.49573590     0.94110
O66         O  0.38002817  0.33734933  0.47428481    -0.81990
O67         O  0.38269818  0.08874952  0.54732844    -0.81450
C68         C  0.37041371  0.48163190  0.48481118     0.97900
O69         O  0.35404046  0.00096605  0.49832759    -0.70570
O70         O  0.34476241  0.04045030  0.54224305    -0.74160
Al71       Al  0.35965274  0.04351288  0.49870987     1.48980
C72         C  0.35860643  0.02838095  0.56579640     0.93160
O73         O  0.44619599  0.02779575  0.55291608    -0.80380
O74         O  0.45880738  0.04817415  0.49600882    -0.73940
Al75       Al  0.41222160  0.05658151  0.54629624     1.90120
O76         O  0.43030061  0.99408979  0.51994434    -0.73010
O77         O  0.41734749  0.04666224  0.45302597    -0.72860
O78         O  0.39521352  0.48995716  0.47261176    -0.78520
O79         O  0.36781266  0.04366479  0.45157714    -0.76720
O80         O  0.39839265  0.04097417  0.51026840    -1.12850
O81         O  0.36183825  0.08695386  0.50001967    -0.72050
C82         C  0.36961942  0.10191117  0.52447997     0.98670
C83         C  0.44998278  0.00228031  0.53942745     0.95070
Al84       Al  0.42363097  0.02110859  0.48714939     1.55560
O85         O  0.38723224  0.03045742  0.56870024    -0.76670
C86         C  0.39331483  0.04471063  0.43705012     0.99230
C87         C  0.46024909  0.07460322  0.50843817     0.94110
O88         O  0.43884311  0.08390204  0.52566044    -0.81990
O89         O  0.23295742  0.25531977  0.78674146    -0.81450
C90         C  0.12637143  0.26090280  0.72200992     0.97900
O91         O  0.14283885  0.27853754  0.73862291    -0.70570
O92         O  0.18218873  0.28885355  0.78451506    -0.74160
Al93       Al  0.18653292  0.27926642  0.74015859     1.48980
C94         C  0.17018888  0.27248650  0.80542573     0.93160
O95         O  0.17765357  0.18726837  0.77968943    -0.80380
O96         O  0.20567636  0.18350531  0.72094250    -0.73940
Al97       Al  0.20282192  0.22340972  0.78032087     1.90120
O98         O  0.14746146  0.19656877  0.74044057    -0.73010
O99         O  0.20147479  0.23204329  0.68574944    -0.72860
O100        O  0.13918998  0.24125912  0.70433283    -0.78520
O101        O  0.18878939  0.27918896  0.69394591    -0.76720
O102        O  0.18832883  0.23915799  0.74500344    -1.12850
O103        O  0.23042854  0.28125183  0.74256199    -0.72050
C104        C  0.24582842  0.27087587  0.76567487     0.98670
C105        C  0.15723556  0.17851306  0.76042363     0.95070
Al106      Al  0.17482874  0.21555353  0.71486371     1.55560
O107        O  0.17244174  0.24389346  0.80394549    -0.76670
C108        C  0.19729243  0.25823060  0.67536747     0.99230
C109        C  0.22801289  0.17999282  0.73996648     0.94110
O110        O  0.23385193  0.20026168  0.76040593    -0.81990
O111        O  0.47849556  0.19091700  0.75487320    -0.81450
C112        C  0.37580222  0.25780952  0.78907919     0.97900
O113        O  0.38373600  0.23375752  0.80353257    -0.70570
O114        O  0.39023627  0.19380408  0.76169257    -0.74160
Al115      Al  0.41667624  0.20533300  0.79359840     1.48980
C116        C  0.39967581  0.17502771  0.74225866     0.93160
O117        O  0.42338100  0.24097436  0.71025635    -0.80380
O118        O  0.48308289  0.26853930  0.77720049    -0.73940
Al119      Al  0.45078460  0.21629655  0.73348653     1.90120
O120        O  0.43546477  0.28354289  0.73515783    -0.73010
O121        O  0.44137254  0.26430944  0.82339803    -0.72860
O122        O  0.39578138  0.27498983  0.77796013    -0.78520
O123        O  0.44089797  0.21480046  0.82817934    -0.76720
O124        O  0.43589852  0.23049555  0.76893379    -1.12850
O125        O  0.44588055  0.17110863  0.78732024    -0.72050
C126        C  0.47123075  0.16955993  0.77295186     0.98670
C127        C  0.42362007  0.26973113  0.71174505     0.95070
Al128      Al  0.43887923  0.26996222  0.77815992     1.55560
O129        O  0.42354135  0.18151506  0.72759045    -0.76670
C130        C  0.44420342  0.24063422  0.84009737     0.99230
C131        C  0.49727850  0.25990665  0.75296890     0.94110
O132        O  0.48332623  0.24553038  0.73129531    -0.81990
O133        O  0.14145148  0.34542594  0.02883152    -0.81450
C134        C  0.12046131  0.23278825  0.97552364     0.97900
O135        O  0.10120211  0.25435618  0.97273741    -0.70570
O136        O  0.08823465  0.28260950  0.02529582    -0.74160
Al137      Al  0.10418867  0.29671182  0.98587735     1.48980
C138        C  0.09987701  0.28268948  0.05244727     0.93160
O139        O  0.18056004  0.26967875  0.04466749    -0.80380
O140        O  0.19370347  0.31176222  0.96514040    -0.73940
Al141      Al  0.15922118  0.30639514  0.03331982     1.90120
O142        O  0.19794144  0.26159575  0.99810723    -0.73010
O143        O  0.14957613  0.28220895  0.93297427    -0.72860
O144        O  0.14893389  0.23771864  0.97542215    -0.78520
O145        O  0.11167382  0.31192638  0.94383309    -0.76720
O146        O  0.14416762  0.29306005  0.99661609    -1.12850
O147        O  0.10108998  0.33916966  0.99832537    -0.72050
C148        C  0.11831175  0.35615318  0.01491163     0.98670
C149        C  0.19962909  0.25757313  0.02677208     0.95070
Al150      Al  0.16976168  0.27498220  0.97020548     1.55560
O151        O  0.12683474  0.29173034  0.05689628    -0.76670
C152        C  0.12984874  0.30069777  0.92429089     0.99230
C153        C  0.20561140  0.32636505  0.98827663     0.94110
O154        O  0.19506507  0.32314734  0.01552897    -0.81990
O155        O  0.17088217  0.09622051  0.00560019    -0.81450
C156        C  0.11208123  0.48750475  0.03562555     0.97900
O157        O  0.13115598  0.49977167  0.05505787    -0.70570
O158        O  0.17897310  0.01029336  0.02519797    -0.74160
Al159      Al  0.15640608  0.03667713  0.04882616     1.48980
C160        C  0.19601223  0.02004401  0.00451923     0.93160
O161        O  0.13162864  0.03283365  0.96080637    -0.80380
O162        O  0.09026987  0.09057447  0.01935009    -0.73940
Al163      Al  0.14998720  0.06404534  0.98424896     1.90120
O164        O  0.08474075  0.04251522  0.97501220    -0.73010
O165        O  0.09127438  0.04681818  0.06757231    -0.72860
O166        O  0.09418395  0.00393141  0.01975643    -0.78520
O167        O  0.13702885  0.06303291  0.07626115    -0.76720
O168        O  0.13344514  0.04921315  0.01789962    -1.12850
O169        O  0.18731194  0.06900364  0.04546293    -0.72050
C170        C  0.19064903  0.09127604  0.02691649     0.98670
C171        C  0.10326364  0.03087317  0.95556680     0.95070
Al172      Al  0.09273964  0.04670373  0.02052131     1.55560
O173        O  0.18691244  0.04045767  0.98601820    -0.76670
C174        C  0.11218995  0.05488698  0.08694333     0.99230
C175        C  0.10088918  0.10534941  0.99624956     0.94110
O176        O  0.11725622  0.09217232  0.97600035    -0.81990
O177        O  0.14958641  0.14830001  0.54132627    -0.81450
C178        C  0.14651807  0.25351834  0.47721284     0.97900
O179        O  0.16526410  0.23747576  0.49234494    -0.70570
O180        O  0.18014536  0.20099570  0.53699639    -0.74160
Al181      Al  0.16717199  0.19476094  0.49337528     1.48980
C182        C  0.16429629  0.21279296  0.55874083     0.93160
O183        O  0.07824059  0.20049662  0.54147151    -0.80380
O184        O  0.06964389  0.17434240  0.48380775    -0.73940
Al185      Al  0.11563056  0.17633312  0.53772861     1.90120
O186        O  0.08722016  0.23297781  0.50497953    -0.73010
O187        O  0.11362992  0.18025236  0.44197768    -0.72860
O188        O  0.12496534  0.24033543  0.46218366    -0.78520
O189        O  0.16208328  0.19150417  0.44714753    -0.76720
O190        O  0.12781174  0.19165299  0.50161462    -1.12850
O191        O  0.17141085  0.15191764  0.49522406    -0.72050
C192        C  0.16399393  0.13635125  0.51880088     0.98670
C193        C  0.07064473  0.22415164  0.52649344     0.95070
Al194      Al  0.10072678  0.20576718  0.47502955     1.55560
O195        O  0.13619704  0.20699399  0.56018430    -0.76670
C196        C  0.13918849  0.18440737  0.42973147     0.99230
C197        C  0.07036927  0.15001377  0.49999633     0.94110
O198        O  0.09312393  0.14471595  0.51774939    -0.81990
O199        O  0.08564788  0.40189972  0.49218666    -0.81450
C200        C  0.15042841  0.00667216  0.52668639     0.97900
O201        O  0.12646778  0.49819409  0.54057968    -0.70570
O202        O  0.08506268  0.48995297  0.50183519    -0.74160
Al203      Al  0.09924597  0.46428055  0.53251246     1.48980
C204        C  0.06330398  0.48005068  0.48622256     0.93160
O205        O  0.12747741  0.46172388  0.44715716    -0.80380
O206        O  0.16081037  0.40101223  0.50999444    -0.73940
Al207      Al  0.10668781  0.43216147  0.47040800     1.90120
O208        O  0.17243983  0.45002165  0.46761485    -0.73010
O209        O  0.16110036  0.44415156  0.55962595    -0.72860
O210        O  0.16743224  0.48765295  0.51351195    -0.78520
O211        O  0.11203593  0.44046073  0.56589609    -0.76720
O212        O  0.12299609  0.44691342  0.50573096    -1.12850
O213        O  0.06680872  0.43318484  0.52769633    -0.72050
C214        C  0.06563649  0.40819694  0.51222051     0.98670
C215        C  0.15636960  0.46331664  0.44631926     0.95070
Al216      Al  0.16286262  0.44513405  0.51244056     1.55560
O217        O  0.06862377  0.45690421  0.46939033    -0.76670
C218        C  0.13815436  0.44233809  0.57765725     0.99230
C219        C  0.15126001  0.38736467  0.48521926     0.94110
O220        O  0.13849862  0.40290600  0.46390105    -0.81990
O221        O  0.28248868  0.48633129  0.79352697    -0.81450
C222        C  0.38933874  0.47811709  0.72848967     0.97900
O223        O  0.37321090  0.46193966  0.74575249    -0.70570
O224        O  0.33738304  0.45123947  0.79184574    -0.74160
Al225      Al  0.33032693  0.46235513  0.74775731     1.48980
C226        C  0.34800843  0.46750591  0.81435567     0.93160
O227        O  0.34107192  0.05181362  0.79304188    -0.80380
O228        O  0.31744600  0.06067120  0.73510374    -0.73940
Al229      Al  0.31357187  0.01723016  0.78981452     1.90120
O230        O  0.37383741  0.03958343  0.75736641    -0.73010
O231        O  0.31746831  0.01507487  0.69633794    -0.72860
O232        O  0.37669024  0.99957310  0.71357693    -0.78520
O233        O  0.32548222  0.46614776  0.70122992    -0.76720
O234        O  0.32912882  0.00204218  0.75492609    -1.12850
O235        O  0.28745153  0.45913148  0.75034401    -0.72050
C236        C  0.27149977  0.46832422  0.77296901     0.98670
C237        C  0.36530738  0.05754563  0.77832514     0.95070
Al238      Al  0.34509897  0.02683322  0.72762113     1.55560
O239        O  0.34183129  0.49553528  0.81510300    -0.76670
C240        C  0.31919931  0.48918629  0.68403181     0.99230
C241        C  0.29198615  0.06258580  0.74868081     0.94110
O242        O  0.28411306  0.04155151  0.76712523    -0.81990
O243        O  0.04210873  0.04220743  0.75384488    -0.81450
C244        C  0.14118070  0.46744527  0.78353753     0.97900
O245        O  0.13235803  0.98874691  0.80158190    -0.70570
O246        O  0.13122455  0.03438675  0.76852982    -0.74160
Al247      Al  0.10140773  0.01996728  0.79441061     1.48980
C248        C  0.12434394  0.05401625  0.74906204     0.93160
O249        O  0.09754618  0.49677523  0.70722563    -0.80380
O250        O  0.03572786  0.46376855  0.76601667    -0.73940
Al251      Al  0.07048239  0.01850192  0.73137501     1.90120
O252        O  0.08235105  0.45135782  0.72108438    -0.73010
O253        O  0.08035935  0.45841915  0.81536975    -0.72860
O254        O  0.12220867  0.45308957  0.76682190    -0.78520
O255        O  0.07327368  0.00663128  0.82326827    -0.76720
O256        O  0.08370605  0.49933582  0.76456975    -1.12850
O257        O  0.07448871  0.05647651  0.79094098    -0.72050
C258        C  0.04995821  0.06088619  0.77500487     0.98670
C259        C  0.09530033  0.46878038  0.70131609     0.95070
Al260      Al  0.07973813  0.45917313  0.76742023     1.55560
O261        O  0.09995711  0.05131334  0.73303438    -0.76670
C262        C  0.07770393  0.48091516  0.83444981     0.99230
C263        C  0.02234320  0.47599116  0.74242949     0.94110
O264        O  0.03797284  0.49056700  0.72289813    -0.81990
O265        O  0.02740676  0.25932064  0.28005198    -0.81450
C266        C  0.14312412  0.23713827  0.23838595     0.97900
O267        O  0.12130556  0.21930315  0.23072321    -0.70570
O268        O  0.09283144  0.20822513  0.28298234    -0.74160
Al269      Al  0.07862208  0.22239417  0.24139962     1.48980
C270        C  0.09200601  0.22096234  0.30993819     0.93160
O271        O  0.10277901  0.29730367  0.29995453    -0.80380
O272        O  0.06519686  0.30666330  0.21483234    -0.73940
Al273      Al  0.06576912  0.27707515  0.28659279     1.90120
O274        O  0.10995014  0.31679856  0.25458409    -0.73010
O275        O  0.10406118  0.26095195  0.19245535    -0.72860
O276        O  0.13892139  0.26562934  0.24179407    -0.78520
O277        O  0.06448303  0.23320026  0.19683573    -0.76720
O278        O  0.08171714  0.26117270  0.25248282    -1.12850
O279        O  0.03656060  0.21849214  0.25197696    -0.72050
C280        C  0.01851514  0.23489185  0.26756316     0.98670
C281        C  0.11578750  0.31626289  0.28302463     0.95070
Al282      Al  0.10260671  0.28525092  0.22812525     1.55560
O283        O  0.07843698  0.24589802  0.31323229    -0.76670
C284        C  0.08117769  0.24997719  0.17967019     0.99230
C285        C  0.04800100  0.31919477  0.23541523     0.94110
O286        O  0.05032558  0.31152690  0.26412709    -0.81990
O287        O  0.27755271  0.28051422  0.24862555    -0.81450
C288        C  0.38958674  0.22138913  0.28080012     0.97900
O289        O  0.37881739  0.24478505  0.29439417    -0.70570
O290        O  0.36705007  0.28836657  0.25777890    -0.74160
Al291      Al  0.34222235  0.27030982  0.28653774     1.48980
C292        C  0.35435164  0.30608420  0.23917584     0.93160
O293        O  0.33720069  0.23826367  0.20203061    -0.80380
O294        O  0.28631949  0.20366164  0.27081041    -0.73940
Al295      Al  0.30821234  0.25862566  0.22639051     1.90120
O296        O  0.33029628  0.19366840  0.22443917    -0.73010
O297        O  0.33335416  0.20956617  0.31650846    -0.72860
O298        O  0.37198333  0.20389663  0.26599875    -0.78520
O299        O  0.31843286  0.25609190  0.31832136    -0.76720
O300        O  0.32680203  0.24488728  0.26041737    -1.12850
O301        O  0.30969866  0.30075107  0.28254788    -0.72050
C302        C  0.28444574  0.30162704  0.26771729     0.98670
C303        C  0.34142194  0.20977350  0.20251262     0.95070
Al304      Al  0.32946261  0.20516513  0.26882003     1.55560
O305        O  0.33155226  0.29687212  0.22303461    -0.76670
C306        C  0.32848453  0.23375117  0.33250731     0.99230
C307        C  0.26937461  0.21145418  0.24779420     0.94110
O308        O  0.28031594  0.22494409  0.22424763    -0.81990
O309        O  0.32814200  0.14735556  0.00077821    -0.81450
C310        C  0.40042329  0.24712557  0.03939019     0.97900
O311        O  0.37677972  0.23830235  0.05350217    -0.70570
O312        O  0.33540449  0.23566361  0.01131224    -0.74160
Al313      Al  0.34708882  0.20762247  0.04178794     1.48980
C314        C  0.31410695  0.22681959  0.99398405     0.93160
O315        O  0.37756100  0.20239501  0.95572240    -0.80380
O316        O  0.40724976  0.14163160  0.01861071    -0.73940
Al317      Al  0.35347804  0.17510898  0.97912312     1.90120
O318        O  0.42107804  0.18949719  0.97848822    -0.73010
O319        O  0.40683721  0.18135471  0.06778667    -0.72860
O320        O  0.41588143  0.22792039  0.02436854    -0.78520
O321        O  0.35734529  0.18157786  0.07411010    -0.76720
O322        O  0.37018239  0.18873967  0.01474104    -1.12850
O323        O  0.31186552  0.18036560  0.03551442    -0.72050
C324        C  0.30832687  0.15540377  0.02058567     0.98670
C325        C  0.40649643  0.20311803  0.95674050     0.95070
Al326      Al  0.40992044  0.18501820  0.02196869     1.55560
O327        O  0.31905652  0.20369583  0.97700517    -0.76670
C328        C  0.38371291  0.17826771  0.08515629     0.99230
C329        C  0.39750936  0.12795802  0.99415403     0.94110
O330        O  0.38222104  0.14208605  0.97343809    -0.81990
O331        O  0.38703211  0.39374728  0.04093402    -0.81450
C332        C  0.40453822  0.99645925  0.97767756     0.97900
O333        O  0.41984801  0.47980864  0.99599407    -0.70570
O334        O  0.42462445  0.44197351  0.04262870    -0.74160
Al335      Al  0.41792461  0.43680131  0.99707087     1.48980
C336        C  0.40730447  0.45558643  0.06199959     0.93160
O337        O  0.32414912  0.45371004  0.02789093    -0.80380
O338        O  0.32231584  0.42231734  0.96899290    -0.73940
Al339      Al  0.35800130  0.42535424  0.03186933     1.90120
O340        O  0.33664360  0.48083276  0.98745450    -0.73010
O341        O  0.37413763  0.42153701  0.94045976    -0.72860
O342        O  0.38581391  0.48442085  0.95787506    -0.78520
O343        O  0.42080215  0.43468524  0.94957449    -0.76720
O344        O  0.37719453  0.43779484  0.99841645    -1.12850
O345        O  0.41749985  0.39272776  0.00037802    -0.72050
C346        C  0.40517117  0.37911740  0.02338949     0.98670
C347        C  0.31827276  0.47458616  0.00834239     0.95070
Al348      Al  0.35661613  0.45102088  0.96577586     1.55560
O349        O  0.37878472  0.45416458  0.05751917    -0.76670
C350        C  0.39966557  0.42757670  0.92989992     0.99230
C351        C  0.31718003  0.40018462  0.98717993     0.94110
O352        O  0.33491473  0.39512619  0.01010969    -0.81990
C353        C  0.40140812  0.09453709  0.99070123    -0.04990
C354        C  0.42362058  0.08155824  0.97103769    -0.02110
C355        C  0.42677864  0.04950975  0.96875256     0.02880
C356        C  0.40525842  0.03023763  0.98281329    -0.04990
C357        C  0.38512784  0.04343873  0.00462504    -0.02090
C358        C  0.38246417  0.07519242  0.00773590     0.02880
C359        C  0.44310420  0.10084609  0.95275351     0.37530
C360        C  0.37036618  0.02502110  0.02762258     0.37520
C361        C  0.35945262  0.08776888  0.02817083     0.35940
C362        C  0.45510234  0.03717443  0.95735698     0.35940
N363        N  0.34059297  0.09698338  0.04433096    -0.38880
N364        N  0.47898948  0.02884183  0.94990922    -0.38880
N365        N  0.35893623  0.01236221  0.04788278    -0.38320
N366        N  0.45865164  0.11540447  0.93719771    -0.38320
C367        C  0.41032431  0.34554958  0.03029888    -0.04990
C368        C  0.39928274  0.33257954  0.05857021    -0.02110
C369        C  0.39719535  0.30064873  0.06211154     0.02880
C370        C  0.40847561  0.28065322  0.03892341    -0.04990
C371        C  0.42460631  0.29362744  0.01362801    -0.02090
C372        C  0.42406495  0.32552755  0.00840071     0.02880
C373        C  0.39001586  0.35177422  0.08457300     0.37530
C374        C  0.44269700  0.27461344  0.99318429     0.37520
C375        C  0.43698885  0.33721178  0.97979453     0.35940
C376        C  0.38338152  0.28828512  0.08995928     0.35940
N377        N  0.44717146  0.34631585  0.95681711    -0.38880
N378        N  0.37210512  0.27754058  0.11156880    -0.38880
N379        N  0.45823498  0.26003745  0.97734351    -0.38320
N380        N  0.38265997  0.36718047  0.10522942    -0.38320
C381        C  0.35920396  0.19581068  0.17660114    -0.04990
C382        C  0.35069700  0.16759706  0.16318275    -0.02110
C383        C  0.36419418  0.15778031  0.13504730     0.02880
C384        C  0.38563815  0.17632882  0.11977607    -0.04990
C385        C  0.39796763  0.20153328  0.13607748    -0.02090
C386        C  0.38453612  0.21156946  0.16417341     0.02880
C387        C  0.32647384  0.14972467  0.17669497     0.37530
C388        C  0.42237379  0.21897990  0.12232655     0.37520
C389        C  0.39679148  0.23825923  0.18014164     0.35940
C390        C  0.35417727  0.12960016  0.12054127     0.35940
N391        N  0.40662142  0.25943592  0.19296981    -0.38880
N392        N  0.34576899  0.10678781  0.10995235    -0.38880
N393        N  0.44183698  0.23290171  0.11135527    -0.38320
N394        N  0.30718187  0.13538270  0.18741322    -0.38320
C395        C  0.23597404  0.20867498  0.24924609    -0.04990
C396        C  0.21915263  0.19968471  0.22224037    -0.02110
C397        C  0.18803865  0.20737971  0.21928756     0.02880
C398        C  0.17399706  0.22451617  0.24314654    -0.04990
C399        C  0.19002518  0.23059085  0.27140286    -0.02090
C400        C  0.22086306  0.22238732  0.27465212     0.02880
C401        C  0.23422008  0.18378129  0.19689037     0.37530
C402        C  0.17569154  0.24748311  0.29639934     0.37520
C403        C  0.23756914  0.23095120  0.30303962     0.35940
C404        C  0.17123589  0.19969293  0.19075423     0.35940
N405        N  0.25059065  0.23791143  0.32576341    -0.38880
N406        N  0.15782179  0.19357184  0.16800623    -0.38880
N407        N  0.16548971  0.26219585  0.31616726    -0.38320
N408        N  0.24609036  0.17117167  0.17652794    -0.38320
C409        C  0.48639874  0.22539558  0.27252816    -0.04990
C410        C  0.47314750  0.22935870  0.30242126    -0.02110
C411        C  0.44176859  0.22390432  0.30643676     0.02880
C412        C  0.42323866  0.21583863  0.28051251    -0.04990
C413        C  0.43767384  0.20551034  0.25296330    -0.02090
C414        C  0.46883542  0.21173082  0.24826647     0.02880
C415        C  0.49181872  0.23825475  0.32934956     0.37530
C416        C  0.42178467  0.18546044  0.23124963     0.37520
C417        C  0.48221105  0.20512831  0.21807401     0.35940
C418        C  0.42959475  0.22189605  0.33771772     0.35940
N419        N  0.49277159  0.19994487  0.19391475    -0.38880
N420        N  0.42059100  0.21924063  0.36291367    -0.38880
N421        N  0.41007731  0.16793548  0.21471882    -0.38320
N422        N  0.00667728  0.24536924  0.35082150    -0.38320
C423        C  0.48838312  0.47409380  0.73662695    -0.04990
C424        C  0.47356008  0.49515657  0.71607287    -0.02110
C425        C  0.44179218  0.49391528  0.71060274     0.02880
C426        C  0.42341276  0.47354034  0.72759748    -0.04350
C427        C  0.43826896  0.45132114  0.74664580    -0.02090
C428        C  0.47040068  0.45151504  0.75089406     0.02880
C429        C  0.49009701  0.01973457  0.70125573     0.37530
C430        C  0.42090185  0.42776195  0.76202030     0.37520
C431        C  0.48470917  0.42816888  0.77002720     0.35940
C432        C  0.42841097  0.01425607  0.68736721     0.35940
N433        N  0.49597073  0.40948302  0.78531203    -0.38880
N434        N  0.41801314  0.03051193  0.66881451    -0.38880
N435        N  0.40725589  0.40887770  0.77430389    -0.38320
N436        N  0.00254082  0.03960198  0.68924367    -0.38320
C437        C  0.23851017  0.46090362  0.77370043    -0.04990
C438        C  0.21995268  0.46961354  0.74811734    -0.02110
C439        C  0.18822987  0.47207282  0.75156289     0.02880
C440        C  0.17427086  0.46173023  0.77918112    -0.04990
C441        C  0.19248533  0.44716072  0.80219212    -0.02090
C442        C  0.22471984  0.44873341  0.80056306     0.02880
C443        C  0.23353445  0.47685680  0.71832941     0.37530
C444        C  0.17817606  0.42984867  0.82670660     0.37520
C445        C  0.24363720  0.43752643  0.82612643     0.35940
C446        C  0.17092023  0.48725425  0.72708663     0.35940
N447        N  0.25881496  0.42868081  0.84655299    -0.38880
N448        N  0.15933743  0.50028657  0.70668840    -0.38880
N449        N  0.16674178  0.41591507  0.84620811    -0.38320
N450        N  0.24433107  0.48163388  0.69432770    -0.38320
C451        C  0.36796793  0.45425179  0.84037940    -0.04990
C452        C  0.38924797  0.47294290  0.85727756    -0.02110
C453        C  0.40618564  0.46126127  0.88314905     0.02880
C454        C  0.40026623  0.43218731  0.89488386    -0.04990
C455        C  0.38263801  0.41244738  0.87574303    -0.02090
C456        C  0.36676485  0.42305354  0.84862544     0.02880
C457        C  0.39381344  0.00450024  0.84879372     0.37530
C458        C  0.38045643  0.38121849  0.88538309     0.37520
C459        C  0.34809739  0.40207632  0.83044149     0.35940
C460        C  0.43115718  0.47838345  0.89647505     0.35940
N461        N  0.33322545  0.38555330  0.81555438    -0.38880
N462        N  0.45228125  0.99152406  0.90556684    -0.38880
N463        N  0.37987961  0.35663739  0.89462128    -0.38320
N464        N  0.39731034  0.02983126  0.84261701    -0.38320
C465        C  0.13866076  0.44889096  0.61217945    -0.04990
C466        C  0.12702019  0.47766361  0.62073217    -0.02110
C467        C  0.10727032  0.48075033  0.64595173     0.02880
C468        C  0.10733087  0.45884024  0.67000985    -0.04990
C469        C  0.12370819  0.43148109  0.66475305    -0.02090
C470        C  0.13655002  0.42540341  0.63467596     0.02880
C471        C  0.13567504  0.00517109  0.60500185     0.37530
C472        C  0.12899462  0.41087883  0.69047214     0.37520
C473        C  0.14778703  0.39538646  0.62697591     0.35940
C474        C  0.08680375  0.00689381  0.64653094     0.35940
N475        N  0.15671353  0.37137173  0.62064987    -0.38880
N476        N  0.07056827  0.02768632  0.64660768    -0.38880
N477        N  0.13403458  0.39527531  0.71163996    -0.38320
N478        N  0.14144159  0.02894448  0.59537525    -0.38320
C479        C  0.10891292  0.20894457  0.33857150    -0.04990
C480        C  0.12228761  0.22987348  0.36058205    -0.02110
C481        C  0.14092587  0.21950494  0.38538661     0.02880
C482        C  0.13911320  0.18919615  0.39501131    -0.04990
C483        C  0.12604044  0.16783506  0.37375118    -0.02090
C484        C  0.11283797  0.17749343  0.34465179     0.02880
C485        C  0.11582020  0.26224285  0.36024944     0.37530
C486        C  0.12734541  0.13587033  0.38129621     0.37520
C487        C  0.10147983  0.15514127  0.32232006     0.35940
C488        C  0.16120259  0.24058492  0.40167457     0.35940
N489        N  0.09261841  0.13721097  0.30441987    -0.38880
N490        N  0.17791861  0.25756610  0.41361485    -0.38880
N491        N  0.12873908  0.11017582  0.38676791    -0.38320
N492        N  0.11108516  0.28809744  0.36190540    -0.38320
C493        C  0.16638979  0.10293129  0.51760954    -0.04990
C494        C  0.18377294  0.08621165  0.53965557    -0.02110
C495        C  0.18034822  0.05420096  0.54133057     0.02880
C496        C  0.15725192  0.03955761  0.52329907    -0.04990
C497        C  0.14109697  0.05648253  0.50043686    -0.02090
C498        C  0.14649753  0.08761368  0.49686062     0.02880
C499        C  0.20487299  0.10196383  0.56053753     0.37530
C500        C  0.11763266  0.04309805  0.48079963     0.37520
C501        C  0.12958242  0.10422642  0.47293006     0.35940
C502        C  0.20005798  0.03654837  0.56185632     0.35940
N503        N  0.11554219  0.11672028  0.45382350    -0.38880
N504        N  0.21576848  0.02238857  0.57822564    -0.38880
N505        N  0.09767454  0.03593602  0.46443049    -0.38320
N506        N  0.22165914  0.11463074  0.57724169    -0.38320
C507        C  0.14979641  0.28783536  0.47745740    -0.04990
C508        C  0.13027560  0.30623975  0.45876638    -0.02110
C509        C  0.13363486  0.33813885  0.45863804     0.02880
C510        C  0.15297174  0.35320131  0.48098799    -0.04990
C511        C  0.17230838  0.33502847  0.49998314    -0.02090
C512        C  0.17164672  0.30283780  0.49739547     0.02880
C513        C  0.10529306  0.29303681  0.44050991     0.37530
C514        C  0.19384968  0.34926870  0.52169773     0.37520
C515        C  0.19368551  0.28570591  0.51590897     0.35940
C516        C  0.11753293  0.35478166  0.43421561     0.35940
N517        N  0.21167627  0.27249009  0.53057118    -0.38880
N518        N  0.10533387  0.36758932  0.41401251    -0.38880
N519        N  0.21103934  0.36050170  0.53907058    -0.38320
N520        N  0.08481917  0.28278192  0.42664343    -0.38320
C521        C  0.09365217  0.01620070  0.92525405    -0.04990
C522        C  0.06849695  0.99614642  0.92140463    -0.02110
C523        C  0.06349181  0.48089456  0.89197718     0.02880
C524        C  0.08635521  0.48103272  0.86873207    -0.04990
C525        C  0.11358319  0.99696746  0.87652785    -0.02090
C526        C  0.11407798  0.01862477  0.90043334     0.02880
C527        C  0.04827350  0.49101819  0.94729311     0.37530
C528        C  0.14270992  0.99056629  0.86282862     0.37520
C529        C  0.13637969  0.04315431  0.89938003     0.35940
C530        C  0.03517273  0.46502187  0.88564958     0.35940
N531        N  0.15398632  0.06270883  0.89854061    -0.38880
N532        N  0.01253040  0.45229327  0.88054066    -0.38880
N533        N  0.16769092  0.98818787  0.85480779    -0.38320
N534        N  0.03244188  0.48659238  0.96822994    -0.38320
C535        C  0.27940092  0.13686996  0.02411573    -0.04990
C536        C  0.26815242  0.11907469  0.99857156    -0.02110
C537        C  0.23846033  0.10664875  0.99896903     0.02880
C538        C  0.22052151  0.10812688  0.02633439    -0.04990
C539        C  0.23264957  0.12343611  0.05294148    -0.02090
C540        C  0.26135954  0.13855019  0.05157581     0.02880
C541        C  0.28662503  0.11357733  0.97106985     0.37530
C542        C  0.21499691  0.12468122  0.08136715     0.37520
C543        C  0.27248932  0.15513994  0.07890363     0.35940
C544        C  0.22669228  0.09265969  0.97035152     0.35940
N545        N  0.28130713  0.16841501  0.10073189    -0.38880
N546        N  0.21830196  0.08231216  0.94674430    -0.38880
N547        N  0.20093072  0.12567506  0.10408968    -0.38320
N548        N  0.30119170  0.10887706  0.94914688    -0.38320
C549        C  0.22773003  0.00989573  0.00480892    -0.04990
C550        C  0.24207939  0.50209600  0.97676289    -0.02110
C551        C  0.27219411  0.49138397  0.97770485     0.02880
C552        C  0.28831907  0.48941298  0.00690235    -0.04990
C553        C  0.27468820  0.99987594  0.03437925    -0.02090
C554        C  0.24433559  0.00947239  0.03363668     0.02880
C555        C  0.22559265  0.50408527  0.94700205     0.37530
C556        C  0.29198456  0.00289598  0.06338062     0.37520
C557        C  0.23127446  0.01969794  0.06300701     0.35940
C558        C  0.28553721  0.48174798  0.94831988     0.35940
N559        N  0.22251851  0.02749336  0.08724495    -0.38880
N560        N  0.29507446  0.47449399  0.92423577    -0.38880
N561        N  0.30404092  0.00719633  0.08724923    -0.38320
N562        N  0.21256675  0.50574439  0.92326989    -0.38320
C563        C  0.11188542  0.45377598  0.02915755    -0.04990
C564        C  0.13452489  0.44093549  0.00991754    -0.02110
C565        C  0.13597724  0.40922846  0.00496699     0.02880
C566        C  0.11344677  0.38985950  0.01687376    -0.04990
C567        C  0.08727718  0.40333050  0.03015587    -0.02090
C568        C  0.08618259  0.43537523  0.03523733     0.02880
C569        C  0.15149443  0.46002382  0.98897893     0.37530
C570        C  0.06130447  0.38457283  0.03758771     0.37520
C571        C  0.05749430  0.45013876  0.04162421     0.35940
C572        C  0.15896367  0.39706241  0.98440981     0.35940
N573        N  0.03492377  0.46326096  0.04520914    -0.38880
N574        N  0.17736622  0.38851441  0.96740091    -0.38880
N575        N  0.04052949  0.36955177  0.04345912    -0.38320
N576        N  0.16406894  0.47332954  0.96982293    -0.38320
C577        C  0.10993782  0.20133331  0.98203164    -0.04990
C578        C  0.09512336  0.18334829  0.95893273    -0.02110
C579        C  0.08899363  0.15227136  0.96476180     0.02880
C580        C  0.09790738  0.13894098  0.99361000    -0.04990
C581        C  0.11144151  0.15738605  0.01706742    -0.02090
C582        C  0.11690443  0.18844114  0.01156824     0.02880
C583        C  0.08808648  0.19615295  0.92849175     0.37530
C584        C  0.12333696  0.14364331  0.04546741     0.37520
C585        C  0.13037323  0.20682162  0.03650688     0.35940
C586        C  0.07480026  0.13355765  0.94053254     0.35940
N587        N  0.14087488  0.22056831  0.05719116    -0.38880
N588        N  0.06352951  0.11853669  0.92123408    -0.38880
N589        N  0.13357973  0.13244381  0.06766106    -0.38320
N590        N  0.08261034  0.20606388  0.90399669    -0.38320
C591        C  0.07642349  0.25952197  0.14571873    -0.04990
C592        C  0.08740590  0.28885964  0.13624110    -0.02110
C593        C  0.08546986  0.29810770  0.10500976     0.02880
C594        C  0.08208007  0.27629832  0.08132187    -0.04990
C595        C  0.07018800  0.24744391  0.08928097    -0.02090
C596        C  0.06610638  0.23953979  0.12153153     0.02880
C597        C  0.10622493  0.30856904  0.15595516     0.37530
C598        C  0.06231993  0.22610526  0.06455782     0.37520
C599        C  0.05482439  0.20976073  0.12959560     0.35940
C600        C  0.09258550  0.32948112  0.09686890     0.35940
N601        N  0.04587848  0.18590241  0.13605027    -0.38880
N602        N  0.09887110  0.35432118  0.09102796    -0.38880
N603        N  0.05544993  0.20912172  0.04486264    -0.38320
N604        N  0.12220315  0.32533946  0.16930037    -0.38320
C605        C  0.22746639  0.24194167  0.03684709    -0.04990
C606        C  0.25170339  0.26222182  0.04256230    -0.02110
C607        C  0.27839947  0.26014412  0.02462020     0.02880
C608        C  0.28243182  0.23558704  0.00317614    -0.04990
C609        C  0.25851641  0.21421205  0.99936070    -0.02090
C610        C  0.23305118  0.21542955  0.01906733     0.02880
C611        C  0.24714504  0.28786105  0.06357209     0.37530
C612        C  0.25844264  0.19276632  0.97339427     0.37520
C613        C  0.20918832  0.19276167  0.01588792     0.35940
C614        C  0.30076311  0.28444382  0.02686171     0.35940
N615        N  0.19039450  0.17448106  0.01297792    -0.38880
N616        N  0.31850606  0.30388153  0.02848240    -0.38880
N617        N  0.25789918  0.17624722  0.95216558    -0.38320
N618        N  0.24349916  0.30836061  0.08025927    -0.38320
C619        C  0.28790480  0.38257784  0.98491845    -0.04990
C620        C  0.28283476  0.35941767  0.96233048    -0.02110
C621        C  0.25575016  0.34159865  0.96249811     0.02880
C622        C  0.23292831  0.34705289  0.98509527    -0.04990
C623        C  0.23801513  0.37084160  0.00740695    -0.02090
C624        C  0.26525733  0.38791768  0.00752804     0.02880
C625        C  0.30620087  0.35242529  0.93996380     0.37530
C626        C  0.21547932  0.37815474  0.03100205     0.37520
C627        C  0.26996535  0.41041732  0.03218266     0.35940
C628        C  0.25256012  0.31637775  0.94060962     0.35940
N629        N  0.27238640  0.42756620  0.05275454    -0.38880
N630        N  0.25019738  0.29617379  0.92321706    -0.38880
N631        N  0.19794515  0.38427135  0.05007191    -0.38320
N632        N  0.32434821  0.34582148  0.92180049    -0.38320
C633        C  0.44594041  0.24167913  0.87480337    -0.04990
C634        C  0.42321225  0.25790043  0.89055516    -0.02110
C635        C  0.41062308  0.24610622  0.91811263     0.02880
C636        C  0.42316421  0.21938309  0.93159306    -0.04990
C637        C  0.45148925  0.20860412  0.92026886    -0.02090
C638        C  0.46199491  0.21872152  0.89104109     0.02880
C639        C  0.41249360  0.28594097  0.87712176     0.37530
C640        C  0.47026097  0.18799997  0.93857599     0.37520
C641        C  0.48846242  0.20472997  0.87686050     0.35940
C642        C  0.38531071  0.26175096  0.93272509     0.35940
N643        N  0.50952801  0.19356004  0.86544680    -0.38880
N644        N  0.36516507  0.27421345  0.94449451    -0.38880
N645        N  0.48608510  0.17261012  0.95356979    -0.38320
N646        N  0.40623183  0.30838532  0.86476073    -0.38320
C647        C  0.49228916  0.14207168  0.77521242    -0.04990
C648        C  0.49208051  0.12180436  0.80109436    -0.02110
C649        C  0.01185731  0.09598776  0.80204206     0.02880
C650        C  0.03198212  0.08987956  0.77721274    -0.04990
C651        C  0.03238237  0.11003704  0.75161446    -0.02090
C652        C  0.01308899  0.13575287  0.75056515     0.02880
C653        C  0.47171091  0.12733960  0.82695856     0.37530
C654        C  0.05218220  0.10408463  0.72526769     0.37520
C655        C  0.01441237  0.15484115  0.72289653     0.35940
C656        C  0.51076919  0.07503429  0.82805754     0.35940
N657        N  0.01571816  0.16980650  0.70074351    -0.38880
N658        N  0.50992116  0.05822433  0.84877465    -0.38880
N659        N  0.06718707  0.10016643  0.70353356    -0.38320
N660        N  0.45541361  0.13169244  0.84761513    -0.38320
C661        C  0.37840409  0.08850165  0.77769768    -0.04990
C662        C  0.40540500  0.09273069  0.76053817    -0.02110
C663        C  0.40938450  0.11918093  0.74274826     0.02880
C664        C  0.38829082  0.14341223  0.74513456    -0.04990
C665        C  0.36142059  0.13902743  0.76263866    -0.02090
C666        C  0.35809596  0.11304838  0.78107986     0.02880
C667        C  0.42920231  0.06971557  0.76142714     0.37530
C668        C  0.33676909  0.16109106  0.76178495     0.37520
C669        C  0.33440909  0.11224774  0.80442742     0.35940
C670        C  0.43446972  0.12061531  0.72106620     0.35940
N671        N  0.31608624  0.11211113  0.82365824    -0.38880
N672        N  0.45410273  0.12123123  0.70325992    -0.38880
N673        N  0.31637799  0.17782277  0.76151305    -0.38320
N674        N  0.44830896  0.05154296  0.76250126    -0.38320
C675        C  0.19657852  0.26111586  0.64060628    -0.04990
C676        C  0.16894515  0.26991098  0.62595911    -0.02110
C677        C  0.15985988  0.25632909  0.59723250     0.02880
C678        C  0.17795249  0.23308329  0.58351212    -0.04990
C679        C  0.20799064  0.22876986  0.59515473    -0.02090
C680        C  0.21754405  0.24379592  0.62299625     0.02880
C681        C  0.14854989  0.29083889  0.64162466     0.37530
C682        C  0.22853932  0.20767572  0.57988726     0.37520
C683        C  0.24891157  0.24122417  0.63374145     0.35940
C684        C  0.13146161  0.26589279  0.58233219     0.35940
N685        N  0.27440711  0.23959590  0.64097917    -0.38880
N686        N  0.10882540  0.27367051  0.57057205    -0.38880
N687        N  0.24499304  0.19084198  0.56776194    -0.38320
N688        N  0.13212306  0.30756098  0.65390394    -0.38320
C689        C  0.09206120  0.26168648  0.72619013    -0.04990
C690        C  0.07652993  0.23508128  0.73541485    -0.02110
C691        C  0.04867559  0.23706886  0.75113029     0.02880
C692        C  0.03097128  0.26353860  0.74960402    -0.04990
C693        C  0.04443964  0.29000990  0.73742555    -0.02090
C694        C  0.07554467  0.28952165  0.72785826     0.02880
C695        C  0.08592048  0.20512702  0.72578689     0.37530
C696        C  0.02645936  0.31757683  0.73503597     0.37520
C697        C  0.08967804  0.31724908  0.71760403     0.35940
C698        C  0.04025013  0.21299966  0.77225718     0.35940
N699        N  0.10068666  0.33953357  0.70917333    -0.38880
N700        N  0.03519874  0.19462256  0.79071590    -0.38880
N701        N  0.01199139  0.33953762  0.73302629    -0.38320
N702        N  0.09029174  0.18036797  0.71778392    -0.38320
C703        C  0.27975509  0.27315890  0.76692490    -0.04990
C704        C  0.29721165  0.25254582  0.74936023    -0.02110
C705        C  0.32882821  0.24941400  0.75527825     0.02880
C706        C  0.34281333  0.26409334  0.78147871    -0.04990
C707        C  0.32590603  0.28715499  0.79675663    -0.02090
C708        C  0.29496384  0.29266087  0.78819771     0.02880
C709        C  0.28280104  0.23501250  0.72445092     0.37530
C710        C  0.34000916  0.30613049  0.82049817     0.37520
C711        C  0.28031258  0.32074853  0.79744603     0.35940
C712        C  0.34690966  0.23412705  0.73180244     0.35940
N713        N  0.26966233  0.34412731  0.80348077    -0.38880
N714        N  0.35974302  0.22271053  0.71134024    -0.38880
N715        N  0.34968822  0.32227538  0.83963461    -0.38320
N716        N  0.27156002  0.22079547  0.70457213    -0.38320
C717        C  0.15490826  0.28687489  0.83283167    -0.04990
C718        C  0.17096600  0.30794313  0.85171911    -0.02110
C719        C  0.15791947  0.31962877  0.87926134     0.02880
C720        C  0.13023736  0.30767862  0.89039269    -0.04990
C721        C  0.11274913  0.28891293  0.87017254    -0.02090
C722        C  0.12518199  0.27817850  0.84166338     0.02880
C723        C  0.20304425  0.31310872  0.84649267     0.37530
C724        C  0.08306927  0.27866502  0.88019065     0.37520
C725        C  0.10862600  0.25598688  0.82299143     0.35940
C726        C  0.17537795  0.34097617  0.89823474     0.35940
N727        N  0.09588281  0.23763794  0.80840252    -0.38880
N728        N  0.19053362  0.35805720  0.91201913    -0.38880
N729        N  0.05926010  0.27081438  0.88822943    -0.38320
N730        N  0.22902629  0.31633433  0.84402408    -0.38320
C731        C  0.24465501  0.15003602  0.74132686    -0.04990
C732        C  0.24557450  0.13353831  0.76980051    -0.02110
C733        C  0.25771784  0.10372809  0.77100398     0.02880
C734        C  0.27305580  0.09116710  0.74495119    -0.04990
C735        C  0.27277893  0.10798772  0.71654404    -0.02090
C736        C  0.25730684  0.13639002  0.71440188     0.02880
C737        C  0.23439148  0.14707116  0.79851989     0.37530
C738        C  0.28827978  0.09626241  0.68921541     0.37520
C739        C  0.25509782  0.15187280  0.68455582     0.35940
C740        C  0.25478654  0.08647181  0.79969484     0.35940
N741        N  0.25317295  0.16404978  0.66064317    -0.38880
N742        N  0.25216837  0.07282298  0.82259276    -0.38880
N743        N  0.30095609  0.08740825  0.66736640    -0.38320
N744        N  0.22633194  0.15746444  0.82197451    -0.38320
C745        C  0.14111628  0.08279741  0.75005868    -0.04990
C746        C  0.14123400  0.10078377  0.72335737    -0.02110
C747        C  0.14570985  0.13217451  0.72636169     0.02880
C748        C  0.14992749  0.14578796  0.75683703    -0.04990
C749        C  0.15216904  0.12688438  0.78324328    -0.02090
C750        C  0.15012455  0.09533378  0.77948492     0.02880
C751        C  0.13734694  0.08653620  0.69262743     0.37530
C752        C  0.15486423  0.13975465  0.81463293     0.37520
C753        C  0.15773345  0.07619843  0.80605399     0.35940
C754        C  0.14542837  0.14911320  0.69732826     0.35940
N755        N  0.16449271  0.06113078  0.82717764    -0.38880
N756        N  0.14442377  0.16086677  0.67312468    -0.38880
N757        N  0.15671841  0.14990781  0.83968906    -0.38320
N758        N  0.13430208  0.07515134  0.66824206    -0.38320
C759        C  0.34224407  0.01192694  0.59128029    -0.04990
C760        C  0.35617288  0.98615292  0.60554910    -0.02110
C761        C  0.34532075  0.97472204  0.63420617     0.02880
C762        C  0.32022690  0.48871859  0.64891625    -0.04990
C763        C  0.30321871  0.01077339  0.63172614    -0.02090
C764        C  0.31433037  0.02253585  0.60324840     0.02880
C765        C  0.38200156  0.97133478  0.59089115     0.37530
C766        C  0.27520929  0.52309091  0.64429891     0.37520
C767        C  0.29797703  0.04689880  0.58754477     0.35940
C768        C  0.36196474  0.95047214  0.64983044     0.35940
N769        N  0.28484665  0.06628706  0.57500825    -0.38880
N770        N  0.37538850  0.93119860  0.66223731    -0.38880
N771        N  0.25283340  0.53352186  0.65367236    -0.38320
N772        N  0.40246300  0.95930875  0.57923202    -0.38320
C773        C  0.48839962  0.09375197  0.50534360    -0.04990
C774        C  0.00469175  0.10295735  0.53258598    -0.02110
C775        C  0.03284364  0.11834056  0.53035534     0.02880
C776        C  0.04313112  0.12907822  0.50102791    -0.04990
C777        C  0.02598430  0.12121468  0.47372104    -0.02090
C778        C  0.49943752  0.10271216  0.47579117     0.02880
C779        C  0.99202881  0.09762264  0.56328293     0.37530
C780        C  0.03614260  0.13135217  0.44337000     0.37520
C781        C  0.48261170  0.09420774  0.44758045     0.35940
C782        C  0.05096781  0.12293355  0.55875908     0.35940
N783        N  0.46917822  0.08752595  0.42501275    -0.38880
N784        N  0.06528499  0.12613861  0.58156245    -0.38880
N785        N  0.04431495  0.13951342  0.41917422    -0.38320
N786        N  0.98157757  0.09430061  0.58776545    -0.38320
C787        C  0.48056785  0.98801871  0.53660931    -0.04990
C788        C  0.00558140  0.00642768  0.54424183    -0.02110
C789        C  0.02973718  0.00890751  0.52323386     0.02880
C790        C  0.03214629  0.48820953  0.49740649    -0.04990
C791        C  0.00789906  0.46794227  0.49140200    -0.02090
C792        C  0.48387843  0.46571994  0.51271956     0.02880
C793        C  0.00673003  0.02192721  0.57432175     0.37530
C794        C  0.00544627  0.45245335  0.46145281     0.37520
C795        C  0.46127343  0.44181998  0.50873264     0.35940
C796        C  0.05169582  0.03316808  0.52852186     0.35940
N797        N  0.44324377  0.42279718  0.50557489    -0.38880
N798        N  0.06896420  0.05259493  0.53327290    -0.38880
N799        N  0.00231369  0.44141397  0.43692427    -0.38320
N800        N  0.00803368  0.03343999  0.59876981    -0.38320
C801        C  0.40110908  0.29557260  0.61860811    -0.04990
C802        C  0.43161112  0.28768288  0.62867598    -0.02110
C803        C  0.43928349  0.28588619  0.66042011     0.02880
C804        C  0.41640347  0.28613646  0.68265921    -0.04990
C805        C  0.38642728  0.29480480  0.67389093    -0.02090
C806        C  0.37882550  0.29999993  0.64185399     0.02880
C807        C  0.45563636  0.27787710  0.60770729     0.37530
C808        C  0.36416559  0.30043623  0.69791336     0.37520
C809        C  0.34821310  0.30937146  0.63299386     0.35940
C810        C  0.47111254  0.28181265  0.67000743     0.35940
N811        N  0.32373345  0.31684022  0.62594177    -0.38880
N812        N  0.49670475  0.27886750  0.67634585    -0.38880
N813        N  0.34634585  0.30608487  0.71682209    -0.38320
N814        N  0.47607498  0.26946425  0.59306080    -0.38320
C815        C  0.35842760  0.38434818  0.49079722    -0.04990
C816        C  0.36430637  0.39806668  0.46143137    -0.02110
C817        C  0.36894804  0.42968368  0.45932855     0.02880
C818        C  0.36163726  0.44872640  0.48476025    -0.04990
C819        C  0.34722151  0.43542068  0.51089623    -0.02090
C820        C  0.34795769  0.40350768  0.51514093     0.02880
C821        C  0.36061867  0.38103485  0.43252377     0.37530
C822        C  0.32926860  0.45379804  0.53196569     0.37520
C823        C  0.33715104  0.39082362  0.54420904     0.35940
C824        C  0.37922803  0.44261276  0.43012756     0.35940
N825        N  0.32847523  0.38083064  0.56745671    -0.38880
N826        N  0.38740789  0.45268729  0.40673648    -0.38880
N827        N  0.31321961  0.46762224  0.54794575    -0.38320
N828        N  0.35582984  0.36923046  0.40866586    -0.38320
C829        C  0.37166148  0.19954015  0.53359625    -0.04990
C830        C  0.36192442  0.18179772  0.55887588    -0.02110
C831        C  0.35874238  0.14994539  0.55523867     0.02880
C832        C  0.36584278  0.13555473  0.52635206    -0.04990
C833        C  0.37410659  0.15362729  0.50064859    -0.02090
C834        C  0.37686511  0.18539591  0.50421839     0.02880
C835        C  0.35518576  0.19637569  0.58857590     0.37530
C836        C  0.38208389  0.13947238  0.47096893     0.37520
C837        C  0.38722716  0.20284828  0.47774827     0.35940
C838        C  0.34796964  0.13201402  0.58123818     0.35940
N839        N  0.39609409  0.21507359  0.45578632    -0.38880
N840        N  0.33932629  0.11769203  0.60194434    -0.38880
N841        N  0.38855459  0.12824054  0.44736511    -0.38320
N842        N  0.34980153  0.20809694  0.61223050    -0.38320
C843        C  0.34719942  0.26818920  0.42576716    -0.04990
C844        C  0.32699815  0.24334216  0.42196187    -0.02110
C845        C  0.32186483  0.23020196  0.39163815     0.02880
C846        C  0.33889780  0.24010780  0.36563963    -0.04990
C847        C  0.36020952  0.26432668  0.37083188    -0.02090
C848        C  0.36209776  0.27960285  0.39945660     0.02880
C849        C  0.31206423  0.23113312  0.44913780     0.37530
C850        C  0.38233771  0.27454792  0.34833862     0.37520
C851        C  0.38268590  0.30575520  0.40202836     0.35940
C852        C  0.29892778  0.20688713  0.38713142     0.35940
N853        N  0.40059803  0.32507756  0.40229918    -0.38880
N854        N  0.28050753  0.18832025  0.38349847    -0.38880
N855        N  0.40136821  0.28551354  0.33359285    -0.38320
N856        N  0.30021651  0.22143909  0.47095972    -0.38320
C857        C  0.03952956  0.23711437  0.52669992    -0.04990
C858        C  0.01540440  0.21642173  0.52934775    -0.02110
C859        C  0.48997067  0.21850099  0.50907255     0.02880
C860        C  0.48581153  0.24450404  0.48992776    -0.04990
C861        C  0.00989651  0.26546709  0.48780676    -0.02090
C862        C  0.03491042  0.26361212  0.50860843     0.02880
C863        C  0.01557941  0.19465520  0.55462121     0.37530
C864        C  0.01042545  0.28709993  0.46243341     0.37520
C865        C  0.05689619  0.28825899  0.51030769     0.35940
C866        C  0.46793237  0.19389011  0.50821434     0.35940
N867        N  0.07416113  0.30811420  0.51187916    -0.38880
N868        N  0.45084775  0.17385778  0.50761504    -0.38880
N869        N  0.01179107  0.30343708  0.44138101    -0.38320
N870        N  0.01476810  0.17820422  0.57562052    -0.38320
C871        C  0.48498139  0.35155573  0.51552235    -0.04990
C872        C  0.00076818  0.35921920  0.54367563    -0.02110
C873        C  0.02695257  0.37814219  0.54300380     0.02880
C874        C  0.03864015  0.38777726  0.51406482    -0.04990
C875        C  0.02344309  0.37887031  0.48596704    -0.02090
C876        C  0.49558170  0.36326475  0.48691001     0.02880
C877        C  0.48903410  0.34950576  0.57349288     0.37530
C878        C  0.03610534  0.38553422  0.45555220     0.37520
C879        C  0.47782283  0.35984812  0.45802756     0.35940
C880        C  0.04260319  0.38662458  0.57193818     0.35940
N881        N  0.46378536  0.35763168  0.43492508    -0.38880
N882        N  0.05519552  0.39338823  0.59498218    -0.38880
N883        N  0.04555059  0.39046339  0.43093267    -0.38320
N884        N  0.47983883  0.34242982  0.59763398    -0.38320
C885        C  0.19489781  0.50391776  0.36284603    -0.04990
C886        C  0.16672645  0.51431558  0.37402754    -0.02110
C887        C  0.15372082  0.50060173  0.40048742     0.02880
C888        C  0.17102751  0.47993880  0.41944039    -0.04990
C889        C  0.20202825  0.47476325  0.41135056    -0.02090
C890        C  0.21343631  0.48597903  0.38274795     0.02880
C891        C  0.14936985  0.53655620  0.35608732     0.37530
C892        C  0.22176717  0.45588269  0.43066662     0.37520
C893        C  0.24365998  0.47738124  0.37244027     0.35940
C894        C  0.12137435  0.50549692  0.40508494     0.35940
N895        N  0.26774291  0.47052760  0.36412294    -0.38880
N896        N  0.09523200  0.50875275  0.40678264    -0.38880
N897        N  0.23768359  0.44086618  0.44597772    -0.38320
N898        N  0.13550371  0.05436711  0.34196991    -0.38320
C899        C  0.11250442  0.04858438  0.12140021    -0.04990
C900        C  0.10794681  0.01852915  0.13153072    -0.02110
C901        C  0.12409312  0.00703844  0.15789139     0.02880
C902        C  0.14687096  0.02494674  0.17343152    -0.04990
C903        C  0.14885842  0.05610533  0.16527469    -0.02090
C904        C  0.13011392  0.06802740  0.14099997     0.02880
C905        C  0.08837670  0.49833634  0.11366225     0.37530
C906        C  0.17062818  0.07615066  0.18089404     0.37520
C907        C  0.12918187  0.10053612  0.13596399     0.35940
C908        C  0.11723376  0.47642261  0.16826583     0.35940
N909        N  0.12820625  0.12669907  0.13348876    -0.38880
N910        N  0.11161580  0.45201038  0.17632676    -0.38880
N911        N  0.18795331  0.09227767  0.19320744    -0.38320
N912        N  0.07295436  0.48135617  0.10013440    -0.38320
C913        C  0.23495704  0.38778079  0.26911381    -0.04990
C914        C  0.24664151  0.37517727  0.24085600    -0.02110
C915        C  0.26106010  0.34649223  0.24059149     0.02880
C916        C  0.26562266  0.33008529  0.26861601    -0.04990
C917        C  0.25471101  0.34259577  0.29696623    -0.02090
C918        C  0.23883951  0.37090722  0.29713942     0.02880
C919        C  0.24417714  0.39139649  0.21132032     0.37530
C920        C  0.25910735  0.32585281  0.32581855     0.37520
C921        C  0.22724952  0.38292285  0.32635004     0.35940
C922        C  0.27199759  0.33445258  0.21099430     0.35940
N923        N  0.21792109  0.39251704  0.34965464    -0.38880
N924        N  0.28029952  0.32545158  0.18703020    -0.38880
N925        N  0.26263649  0.31238232  0.34879872    -0.38320
N926        N  0.24276201  0.40397489  0.18759673    -0.38320
C927        C  0.13499743  0.34109994  0.29438393    -0.04990
C928        C  0.15975904  0.34559696  0.27416500    -0.02110
C929        C  0.15748417  0.36889081  0.25181267     0.02880
C930        C  0.13703259  0.39321708  0.25651452    -0.04990
C931        C  0.11585540  0.39116634  0.28141741    -0.02090
C932        C  0.11691192  0.36625139  0.30201353     0.02880
C933        C  0.18165080  0.32134916  0.26954524     0.37530
C934        C  0.09117511  0.41299135  0.28408772     0.37520
C935        C  0.09488006  0.36334851  0.32681626     0.35940
C936        C  0.17258321  0.36539517  0.22201203     0.35940
N937        N  0.07718935  0.36083748  0.34648283    -0.38880
N938        N  0.18355121  0.36189143  0.19775443    -0.38880
N939        N  0.07103341  0.42992731  0.28584770    -0.38320
N940        N  0.19952359  0.30258491  0.26471555    -0.38320
C941        C  0.44245684  0.51400004  0.13857335    -0.04990
C942        C  0.41169808  0.51491013  0.12880168    -0.02110
C943        C  0.40016848  0.49236296  0.10806346     0.02880
C944        C  0.42000850  0.47469639  0.08916800    -0.04990
C945        C  0.45170153  0.47658232  0.09615494    -0.02090
C946        C  0.46273509  0.49659924  0.12010445     0.02880
C947        C  0.39118685  0.03698627  0.14249009     0.37530
C948        C  0.47192242  0.45360547  0.08372215     0.37520
C949        C  0.49484186  0.49739520  0.12844337     0.35940
C950        C  0.36934881  0.48197199  0.11288453     0.35940
N951        N  0.02020841  0.49872838  0.13613738    -0.38880
N952        N  0.34562835  0.47185794  0.11801271    -0.38880
N953        N  0.48701526  0.43389834  0.07468717    -0.38320
N954        N  0.37479588  0.05484282  0.15305930    -0.38320
C955        C  0.34253746  0.01425738  0.21387024    -0.04990
C956        C  0.32586086  0.04048356  0.22331229    -0.02110
C957        C  0.29405690  0.03846612  0.22999831     0.02880
C958        C  0.27955055  0.00972335  0.23092594    -0.04990
C959        C  0.29730455  0.48387562  0.22378429    -0.02090
C960        C  0.32632452  0.48671688  0.21074643     0.02880
C961        C  0.34108834  0.06966709  0.22485590     0.37530
C962        C  0.29010353  0.45468198  0.23694466     0.37520
C963        C  0.33869181  0.46060084  0.19444632     0.35940
C964        C  0.27659392  0.06573068  0.23636542     0.35940
N965        N  0.34702530  0.43940223  0.18081572    -0.38880
N966        N  0.26261068  0.08753394  0.24136244    -0.38880
N967        N  0.28792545  0.43131777  0.24891743    -0.38320
N968        N  0.35347224  0.09287602  0.22607727    -0.38320
C969        C  0.09255351  0.01777555  0.28226239    -0.04990
C970        C  0.07279165  0.50490304  0.30463052    -0.02110
C971        C  0.04073653  0.50911293  0.30235677     0.02880
C972        C  0.02677556  0.02166244  0.27501144    -0.04990
C973        C  0.04639569  0.03577909  0.25332111    -0.02090
C974        C  0.07865637  0.03556336  0.25812107     0.02880
C975        C  0.08476642  0.48602618  0.32972272     0.37530
C976        C  0.03385451  0.05038094  0.22557790     0.37520
C977        C  0.09705722  0.05453011  0.23830088     0.35940
C978        C  0.02270218  0.50181819  0.32946747     0.35940
N979        N  0.11119831  0.07064759  0.22294372    -0.38880
N980        N  0.00932667  0.49661171  0.35194573    -0.38880
N981        N  0.02406743  0.06194407  0.20329279    -0.38320
N982        N  0.09391934  0.46991778  0.34903748    -0.38320
C983        C  0.40817268  0.02287131  0.33749355    -0.04990
C984        C  0.38612268  0.04516107  0.34566338    -0.02110
C985        C  0.37955661  0.05147516  0.37794783     0.02880
C986        C  0.39738192  0.03812383  0.40225379    -0.04990
C987        C  0.42097716  0.01761032  0.39302117    -0.02090
C988        C  0.42329975  0.00740349  0.36195966     0.02880
C989        C  0.36920315  0.06039835  0.32098976     0.37530
C990        C  0.44525671  0.50788302  0.41408729     0.37520
C991        C  0.44115678  0.48009981  0.35592735     0.35940
C992        C  0.35581573  0.07290740  0.38600930     0.35940
N993        N  0.45469439  0.45775842  0.35226267    -0.38880
N994        N  0.33682576  0.09004852  0.39249952    -0.38880
N995        N  0.46607624  0.50033121  0.42909843    -0.38320
N996        N  0.35559993  0.07257015  0.30128591    -0.38320
C997        C  0.49317687  0.40105614  0.22879175    -0.04990
C998        C  0.48835953  0.37932859  0.25239273    -0.02110
C999        C  0.00254643  0.35065834  0.25089485     0.02880
C1000       C  0.02554761  0.34455329  0.22851823    -0.04990
C1001       C  0.02874624  0.36561653  0.20369520    -0.02090
C1002       C  0.01203890  0.39335754  0.20353577     0.02880
C1003       C  0.46893124  0.38603258  0.27884694     0.37530
C1004       C  0.04812754  0.35933779  0.17753714     0.37520
C1005       C  0.01502261  0.41447664  0.17781165     0.35940
C1006       C  0.49230204  0.32723728  0.27221055     0.35940
N1007       N  0.01740667  0.43110025  0.15710684    -0.38880
N1008       N  0.48350847  0.30907256  0.28935053    -0.38880
N1009       N  0.06221964  0.35656905  0.15507298    -0.38320
N1010       N  0.45413593  0.39035168  0.30067869    -0.38320
C1011       C  0.36372935  0.33840562  0.24023405    -0.04990
C1012       C  0.36434220  0.35525231  0.26913227    -0.02110
C1013       C  0.37518806  0.38518535  0.27009076     0.02880
C1014       C  0.38707020  0.39801885  0.24311962    -0.04990
C1015       C  0.38676887  0.38141867  0.21438765    -0.02090
C1016       C  0.37402703  0.35218702  0.21289762     0.02880
C1017       C  0.35408111  0.34328668  0.29866263     0.37530
C1018       C  0.40133486  0.39305945  0.18659750     0.37520
C1019       C  0.37301551  0.33558722  0.18348891     0.35940
C1020       C  0.37416161  0.40296494  0.29902925     0.35940
N1021       N  0.37203660  0.32229903  0.16005680    -0.38880
N1022       N  0.37339996  0.41709690  0.32199346    -0.38880
N1023       N  0.41287109  0.40158861  0.16407767    -0.38320
N1024       N  0.34638856  0.33623867  0.32342522    -0.38320
O1025       O  0.47810639  0.99856316  0.28529203    -0.81450
C1026       C  0.37699496  0.51348561  0.21418061     0.97900
O1027       O  0.39145943  0.52837111  0.23512459    -0.70570
O1028       O  0.42792564  0.53367402  0.28549696    -0.74160
Al1029     Al  0.43468837  0.52894954  0.23972869     1.48980
C1030       C  0.41640225  0.51459120  0.30433132     0.93160
O1031       O  0.42095816  0.93423139  0.26630621    -0.80380
O1032       O  0.45550781  0.93591013  0.20982088    -0.73940
Al1033     Al  0.44754141  0.96861423  0.27315147     1.90120
O1034       O  0.39614308  0.94607005  0.22339567    -0.73010
O1035       O  0.45647203  0.98903959  0.18417422    -0.72860
O1036       O  0.39161414  0.99609774  0.19546061    -0.78520
O1037       O  0.43864110  0.53387992  0.19276354    -0.76720
O1038       O  0.43589507  0.98831465  0.23959622    -1.12850
O1039       O  0.47873916  0.53030542  0.24561694    -0.72050
C1040       C  0.49271553  0.51717046  0.26835601     0.98670
C1041       C  0.40147199  0.92800119  0.24504287     0.95070
Al1042     Al  0.42598363  0.96859755  0.20529796     1.55560
O1043       O  0.41592925  0.98685824  0.29677059    -0.76670
C1044       C  0.44841754  0.51401020  0.17338339     0.99230
C1045       C  0.47618279  0.93035266  0.23000380     0.94110
O1046       O  0.47980824  0.94752703  0.25349927    -0.81990
O1047       O  0.22581777  0.93730041  0.24830064    -0.81450
C1048       C  0.12675101  0.51078991  0.28263882     0.97900
O1049       O  0.13772083  0.98987960  0.29985664    -0.70570
O1050       O  0.13796935  0.94604744  0.26099825    -0.74160
Al1051     Al  0.16804350  0.95925781  0.28926264     1.48980
C1052       C  0.14557466  0.92384848  0.24471880     0.93160
O1053       O  0.16965967  0.98263871  0.20008847    -0.80380
O1054       O  0.23229706  0.51845966  0.25916996    -0.73940
Al1055     Al  0.19754582  0.96084846  0.22537676     1.90120
O1056       O  0.18191525  0.52769070  0.21814785    -0.73010
O1057       O  0.19272006  0.52079725  0.30881330    -0.72860
O1058       O  0.14467514  0.52473833  0.26487393    -0.78520
O1059       O  0.19665309  0.97221862  0.31923521    -0.76720
O1060       O  0.18521839  0.98010523  0.25947536    -1.12850
O1061       O  0.19445855  0.92274106  0.28457376    -0.72050
C1062       C  0.21804436  0.91779784  0.26816598     0.98670
C1063       C  0.16723440  0.51118745  0.19849292     0.95070
Al1064     Al  0.18813884  0.52014915  0.26268700     1.55560
O1065       O  0.16806684  0.92720616  0.22671987    -0.76670
C1066       C  0.19699282  0.49937049  0.32839266     0.99230
C1067       C  0.24586051  0.50569734  0.23638558     0.94110
O1068       O  0.23100979  0.98842423  0.21763245    -0.81990
O1069       O  0.43540200  0.83760690  0.49792390    -0.81450
C1070       C  0.37629101  0.73283785  0.53705222     0.97900
O1071       O  0.39951455  0.74337648  0.55154155    -0.70570
O1072       O  0.43579548  0.74755169  0.50629046    -0.74160
Al1073     Al  0.42602857  0.77587658  0.53702775     1.48980
C1074       C  0.45432544  0.75662305  0.48669039     0.93160
O1075       O  0.38930348  0.77774232  0.45722559    -0.80380
O1076       O  0.35959328  0.83717361  0.52096943    -0.73940
Al1077     Al  0.41186040  0.80731224  0.47768917     1.90120
O1078       O  0.34528892  0.78880461  0.47907111    -0.73010
O1079       O  0.36872971  0.79484610  0.57005230    -0.72860
O1080       O  0.35803360  0.75046961  0.52328273    -0.78520
O1081       O  0.41728446  0.80352683  0.56793037    -0.76720
O1082       O  0.39927034  0.79258036  0.51289855    -1.12850
O1083       O  0.45928508  0.80486475  0.52820100    -0.72050
C1084       C  0.45817894  0.83070303  0.51486676     0.98670
C1085       C  0.36054623  0.77771733  0.45634290     0.95070
Al1086     Al  0.36024847  0.79325011  0.52302562     1.55560
O1087       O  0.44827255  0.78124469  0.47257395    -0.76670
C1088       C  0.39450120  0.79921259  0.58412231     0.99230
C1089       C  0.36574361  0.85117107  0.49573591     0.94110
O1090       O  0.38002818  0.83734933  0.47428481    -0.81990
O1091       O  0.38269820  0.58874952  0.54732843    -0.81450
C1092       C  0.37041369  0.98163190  0.48481119     0.97900
O1093       O  0.35404047  0.50096605  0.49832758    -0.70570
O1094       O  0.34476242  0.54045030  0.54224304    -0.74160
Al1095     Al  0.35965275  0.54351288  0.49870985     1.48980
C1096       C  0.35860645  0.52838095  0.56579638     0.93160
O1097       O  0.44619600  0.52779575  0.55291607    -0.80380
O1098       O  0.45880739  0.54817416  0.49600881    -0.73940
Al1099     Al  0.41222162  0.55658151  0.54629623     1.90120
O1100       O  0.43030062  0.49408980  0.51994434    -0.73010
O1101       O  0.41734751  0.54666224  0.45302596    -0.72860
O1102       O  0.39521350  0.98995716  0.47261177    -0.78520
O1103       O  0.36781268  0.54366480  0.45157713    -0.76720
O1104       O  0.39839267  0.54097417  0.51026839    -1.12850
O1105       O  0.36183827  0.58695386  0.50001966    -0.72050
C1106       C  0.36961944  0.60191117  0.52447995     0.98670
C1107       C  0.44998279  0.50228032  0.53942744     0.95070
Al1108     Al  0.42363099  0.52110859  0.48714938     1.55560
O1109       O  0.38723226  0.53045742  0.56870023    -0.76670
C1110       C  0.39331485  0.54471063  0.43705011     0.99230
C1111       C  0.46024910  0.57460322  0.50843816     0.94110
O1112       O  0.43884312  0.58390205  0.52566043    -0.81990
O1113       O  0.23295743  0.75531977  0.78674145    -0.81450
C1114       C  0.12637144  0.76090280  0.72200990     0.97900
O1115       O  0.14283886  0.77853754  0.73862289    -0.70570
O1116       O  0.18218875  0.78885355  0.78451504    -0.74160
Al1117     Al  0.18653293  0.77926642  0.74015856     1.48980
C1118       C  0.17018889  0.77248651  0.80542571     0.93160
O1119       O  0.17765358  0.68726838  0.77968942    -0.80380
O1120       O  0.20567636  0.68350531  0.72094248    -0.73940
Al1121     Al  0.20282192  0.72340972  0.78032085     1.90120
O1122       O  0.14746147  0.69656878  0.74044055    -0.73010
O1123       O  0.20147480  0.73204329  0.68574943    -0.72860
O1124       O  0.13918999  0.74125912  0.70433281    -0.78520
O1125       O  0.18878941  0.77918895  0.69394589    -0.76720
O1126       O  0.18832884  0.73915799  0.74500342    -1.12850
O1127       O  0.23042855  0.78125183  0.74256198    -0.72050
C1128       C  0.24582843  0.77087587  0.76567485     0.98670
C1129       C  0.15723556  0.67851306  0.76042361     0.95070
Al1130     Al  0.17482875  0.71555353  0.71486369     1.55560
O1131       O  0.17244174  0.74389347  0.80394547    -0.76670
C1132       C  0.19729245  0.75823059  0.67536746     0.99230
C1133       C  0.22801290  0.67999282  0.73996646     0.94110
O1134       O  0.23385193  0.70026167  0.76040591    -0.81990
O1135       O  0.47849558  0.69091699  0.75487321    -0.81450
C1136       C  0.37580223  0.75780951  0.78907919     0.97900
O1137       O  0.38373601  0.73375751  0.80353257    -0.70570
O1138       O  0.39023628  0.69380407  0.76169257    -0.74160
Al1139     Al  0.41667625  0.70533299  0.79359840     1.48980
C1140       C  0.39967582  0.67502770  0.74225866     0.93160
O1141       O  0.42338101  0.74097435  0.71025635    -0.80380
O1142       O  0.48308289  0.76853929  0.77720050    -0.73940
Al1143     Al  0.45078461  0.71629654  0.73348653     1.90120
O1144       O  0.43546478  0.78354288  0.73515783    -0.73010
O1145       O  0.44137255  0.76430943  0.82339803    -0.72860
O1146       O  0.39578139  0.77498981  0.77796012    -0.78520
O1147       O  0.44089797  0.71480045  0.82817934    -0.76720
O1148       O  0.43589853  0.73049554  0.76893380    -1.12850
O1149       O  0.44588056  0.67110862  0.78732024    -0.72050
C1150       C  0.47123076  0.66955992  0.77295186     0.98670
C1151       C  0.42362008  0.76973111  0.71174505     0.95070
Al1152     Al  0.43887924  0.76996221  0.77815992     1.55560
O1153       O  0.42354136  0.68151505  0.72759046    -0.76670
C1154       C  0.44420343  0.74063421  0.84009738     0.99230
C1155       C  0.49727850  0.75990664  0.75296891     0.94110
O1156       O  0.48332624  0.74553037  0.73129531    -0.81990
O1157       O  0.14145148  0.84542593  0.02883147    -0.81450
C1158       C  0.12046132  0.73278825  0.97552358     0.97900
O1159       O  0.10120211  0.75435618  0.97273734    -0.70570
O1160       O  0.08823466  0.78260948  0.02529576    -0.74160
Al1161     Al  0.10418867  0.79671182  0.98587730     1.48980
C1162       C  0.09987702  0.78268946  0.05244721     0.93160
O1163       O  0.18056005  0.76967874  0.04466743    -0.80380
O1164       O  0.19370347  0.81176223  0.96514035    -0.73940
Al1165     Al  0.15922118  0.80639513  0.03331976     1.90120
O1166       O  0.19794144  0.76159576  0.99810718    -0.73010
O1167       O  0.14957613  0.78220896  0.93297422    -0.72860
O1168       O  0.14893390  0.73771864  0.97542209    -0.78520
O1169       O  0.11167382  0.81192639  0.94383305    -0.76720
O1170       O  0.14416763  0.79306005  0.99661604    -1.12850
O1171       O  0.10108997  0.83916965  0.99832534    -0.72050
C1172       C  0.11831174  0.85615318  0.01491160     0.98670
C1173       C  0.19962910  0.75757313  0.02677202     0.95070
Al1174     Al  0.16976168  0.77498221  0.97020542     1.55560
O1175       O  0.12683475  0.79173032  0.05689622    -0.76670
C1176       C  0.12984874  0.80069778  0.92429084     0.99230
C1177       C  0.20561140  0.82636506  0.98827658     0.94110
O1178       O  0.19506507  0.82314734  0.01552893    -0.81990
O1179       O  0.17088218  0.59622052  0.00560015    -0.81450
C1180       C  0.11208123  0.98750473  0.03562557     0.97900
O1181       O  0.13115598  0.99977164  0.05505788    -0.70570
O1182       O  0.17897311  0.51029338  0.02519796    -0.74160
Al1183     Al  0.15640608  0.53667715  0.04882613     1.48980
C1184       C  0.19601224  0.52004403  0.00451922     0.93160
O1185       O  0.13162866  0.53283364  0.96080634    -0.80380
O1186       O  0.09026987  0.59057448  0.01935004    -0.73940
Al1187     Al  0.14998721  0.56404535  0.98424893     1.90120
O1188       O  0.08474077  0.54251521  0.97501216    -0.73010
O1189       O  0.09127437  0.54681821  0.06757227    -0.72860
O1190       O  0.09418396  0.50393142  0.01975641    -0.78520
O1191       O  0.13702884  0.56303294  0.07626111    -0.76720
O1192       O  0.13344515  0.54921316  0.01789958    -1.12850
O1193       O  0.18731194  0.56900367  0.04546290    -0.72050
C1194       C  0.19064902  0.59127606  0.02691645     0.98670
C1195       C  0.10326366  0.53087317  0.95556677     0.95070
Al1196     Al  0.09273964  0.54670374  0.02052127     1.55560
O1197       O  0.18691245  0.54045767  0.98601818    -0.76670
C1198       C  0.11218994  0.55488702  0.08694329     0.99230
C1199       C  0.10088918  0.60534941  0.99624950     0.94110
O1200       O  0.11725623  0.59217232  0.97600030    -0.81990
O1201       O  0.14958643  0.64829996  0.54132620    -0.81450
C1202       C  0.14651803  0.75351837  0.47721296     0.97900
O1203       O  0.16526407  0.73747578  0.49234503    -0.70570
O1204       O  0.18014536  0.70099565  0.53699640    -0.74160
Al1205     Al  0.16717199  0.69476096  0.49337529     1.48980
C1206       C  0.16429629  0.71279289  0.55874085     0.93160
O1207       O  0.07824059  0.70049654  0.54147155    -0.80380
O1208       O  0.06964389  0.67434239  0.48380775    -0.73940
Al1209     Al  0.11563057  0.67633305  0.53772861     1.90120
O1210       O  0.08722012  0.73297777  0.50497960    -0.73010
O1211       O  0.11362992  0.68025243  0.44197768    -0.72860
O1212       O  0.12496530  0.74033548  0.46218376    -0.78520
O1213       O  0.16208327  0.69150428  0.44714753    -0.76720
O1214       O  0.12781173  0.69165298  0.50161463    -1.12850
O1215       O  0.17141086  0.65191766  0.49522399    -0.72050
C1216       C  0.16399395  0.63635123  0.51880078     0.98670
C1217       C  0.07064472  0.72415157  0.52649353     0.95070
Al1218     Al  0.10072676  0.70576719  0.47502959     1.55560
O1219       O  0.13619705  0.70699391  0.56018433    -0.76670
C1220       C  0.13918848  0.68440748  0.42973147     0.99230
C1221       C  0.07036928  0.65001374  0.49999630     0.94110
O1222       O  0.09312395  0.64471590  0.51774935    -0.81990
O1223       O  0.08564793  0.90189972  0.49218674    -0.81450
C1224       C  0.15042837  0.50667216  0.52668627     0.97900
O1225       O  0.12646783  0.99819407  0.54057980    -0.70570
O1226       O  0.08506271  0.98995297  0.50183532    -0.74160
Al1227     Al  0.09924602  0.96428053  0.53251257     1.48980
C1228       C  0.06330403  0.98005068  0.48622267     0.93160
O1229       O  0.12747746  0.96172390  0.44715725    -0.80380
O1230       O  0.16081044  0.90101226  0.50999452    -0.73940
Al1231     Al  0.10668787  0.93216148  0.47040809     1.90120
O1232       O  0.17243988  0.95002167  0.46761494    -0.73010
O1233       O  0.16110042  0.94415157  0.55962603    -0.72860
O1234       O  0.16743228  0.98765297  0.51351205    -0.78520
O1235       O  0.11203599  0.94046069  0.56589618    -0.76720
O1236       O  0.12299614  0.94691343  0.50573105    -1.12850
O1237       O  0.06680877  0.93318482  0.52769642    -0.72050
C1238       C  0.06563654  0.90819692  0.51222059     0.98670
C1239       C  0.15636964  0.96331667  0.44631935     0.95070
Al1240     Al  0.16286268  0.94513407  0.51244065     1.55560
O1241       O  0.06862382  0.95690422  0.46939043    -0.76670
C1242       C  0.13815442  0.94233807  0.57765733     0.99230
C1243       C  0.15126007  0.88736469  0.48521935     0.94110
O1244       O  0.13849868  0.90290602  0.46390113    -0.81990
O1245       O  0.28248868  0.98633129  0.79352700    -0.81450
C1246       C  0.38933873  0.97811710  0.72848967     0.97900
O1247       O  0.37321089  0.96193967  0.74575250    -0.70570
O1248       O  0.33738304  0.95123948  0.79184575    -0.74160
Al1249     Al  0.33032692  0.96235514  0.74775732     1.48980
C1250       C  0.34800844  0.96750591  0.81435568     0.93160
O1251       O  0.34107192  0.55181361  0.79304187    -0.80380
O1252       O  0.31744602  0.56067120  0.73510372    -0.73940
Al1253     Al  0.31357187  0.51723016  0.78981450     1.90120
O1254       O  0.37383742  0.53958342  0.75736641    -0.73010
O1255       O  0.31746833  0.51507487  0.69633793    -0.72860
O1256       O  0.37669026  0.49957309  0.71357693    -0.78520
O1257       O  0.32548220  0.96614777  0.70122994    -0.76720
O1258       O  0.32912883  0.50204217  0.75492608    -1.12850
O1259       O  0.28745152  0.95913149  0.75034404    -0.72050
C1260       C  0.27149977  0.96832422  0.77296904     0.98670
C1261       C  0.36530738  0.55754562  0.77832514     0.95070
Al1262     Al  0.34509899  0.52683321  0.72762112     1.55560
O1263       O  0.34183131  0.99553528  0.81510301    -0.76670
C1264       C  0.31919929  0.98918629  0.68403182     0.99230
C1265       C  0.29198616  0.56258579  0.74868078     0.94110
O1266       O  0.28411306  0.54155150  0.76712520    -0.81990
O1267       O  0.04210874  0.54220745  0.75384485    -0.81450
C1268       C  0.14118070  0.96744527  0.78353758     0.97900
O1269       O  0.13235804  0.48874691  0.80158184    -0.70570
O1270       O  0.13122457  0.53438675  0.76852977    -0.74160
Al1271     Al  0.10140775  0.51996729  0.79441057     1.48980
C1272       C  0.12434395  0.55401626  0.74906200     0.93160
O1273       O  0.09754618  0.99677521  0.70722568    -0.80380
O1274       O  0.03572785  0.96376853  0.76601671    -0.73940
Al1275     Al  0.07048239  0.51850194  0.73137497     1.90120
O1276       O  0.08235105  0.95135780  0.72108444    -0.73010
O1277       O  0.08035934  0.95841914  0.81536980    -0.72860
O1278       O  0.12220867  0.95308956  0.76682196    -0.78520
O1279       O  0.07327369  0.50663129  0.82326823    -0.76720
O1280       O  0.08370605  0.99933581  0.76456980    -1.12850
O1281       O  0.07448873  0.55647652  0.79094094    -0.72050
C1282       C  0.04995823  0.56088621  0.77500484     0.98670
C1283       C  0.09530034  0.96878036  0.70131614     0.95070
Al1284     Al  0.07973813  0.95917312  0.76742028     1.55560
O1285       O  0.09995712  0.55131335  0.73303433    -0.76670
C1286       C  0.07770391  0.98091515  0.83444986     0.99230
C1287       C  0.02234319  0.97599114  0.74242953     0.94110
O1288       O  0.03797284  0.99056697  0.72289817    -0.81990
O1289       O  0.02740668  0.75932058  0.28005180    -0.81450
C1290       C  0.14312410  0.73713822  0.23838589     0.97900
O1291       O  0.12130554  0.71930310  0.23072312    -0.70570
O1292       O  0.09283146  0.70822508  0.28298227    -0.74160
Al1293     Al  0.07862207  0.72239411  0.24139954     1.48980
C1294       C  0.09200594  0.72096227  0.30993812     0.93160
O1295       O  0.10277892  0.79730356  0.29995451    -0.80380
O1296       O  0.06519682  0.80666326  0.21483229    -0.73940
Al1297     Al  0.06576903  0.77707506  0.28659270     1.90120
O1298       O  0.10995009  0.81679849  0.25458409    -0.73010
O1299       O  0.10406116  0.76095193  0.19245529    -0.72860
O1300       O  0.13892135  0.76562929  0.24179403    -0.78520
O1301       O  0.06448302  0.73320020  0.19683565    -0.76720
O1302       O  0.08171710  0.76117263  0.25248274    -1.12850
O1303       O  0.03656059  0.71849203  0.25197689    -0.72050
C1304       C  0.01851510  0.73489176  0.26756303     0.98670
C1305       C  0.11578743  0.81626279  0.28302464     0.95070
Al1306     Al  0.10260668  0.78525087  0.22812521     1.55560
O1307       O  0.07843681  0.74589791  0.31323220    -0.76670
C1308       C  0.08117767  0.74997716  0.17967013     0.99230
C1309       C  0.04800096  0.81919471  0.23541517     0.94110
O1310       O  0.05032554  0.81152684  0.26412703    -0.81990
O1311       O  0.27755271  0.78051421  0.24862555    -0.81450
C1312       C  0.38958673  0.72138913  0.28080014     0.97900
O1313       O  0.37881737  0.74478505  0.29439419    -0.70570
O1314       O  0.36705006  0.78836657  0.25777892    -0.74160
Al1315     Al  0.34222233  0.77030982  0.28653775     1.48980
C1316       C  0.35435163  0.80608420  0.23917586     0.93160
O1317       O  0.33720068  0.73826366  0.20203063    -0.80380
O1318       O  0.28631947  0.70366165  0.27081042    -0.73940
Al1319     Al  0.30821234  0.75862565  0.22639051     1.90120
O1320       O  0.33029627  0.69366840  0.22443919    -0.73010
O1321       O  0.33335414  0.70956617  0.31650847    -0.72860
O1322       O  0.37198332  0.70389663  0.26599878    -0.78520
O1323       O  0.31843284  0.75609190  0.31832137    -0.76720
O1324       O  0.32680202  0.74488728  0.26041738    -1.12850
O1325       O  0.30969865  0.80075106  0.28254789    -0.72050
C1326       C  0.28444572  0.80162702  0.26771730     0.98670
C1327       C  0.34142193  0.70977350  0.20251264     0.95070
Al1328     Al  0.32946259  0.70516513  0.26882004     1.55560
O1329       O  0.33155226  0.79687212  0.22303462    -0.76670
C1330       C  0.32848451  0.73375118  0.33250732     0.99230
C1331       C  0.26937459  0.71145418  0.24779421     0.94110
O1332       O  0.28031594  0.72494409  0.22424763    -0.81990
O1333       O  0.32814201  0.64735556  0.00077820    -0.81450
C1334       C  0.40042329  0.74712557  0.03939019     0.97900
O1335       O  0.37677972  0.73830235  0.05350216    -0.70570
O1336       O  0.33540450  0.73566361  0.01131221    -0.74160
Al1337     Al  0.34708882  0.70762247  0.04178792     1.48980
C1338       C  0.31410696  0.72681959  0.99398402     0.93160
O1339       O  0.37756102  0.70239501  0.95572240    -0.80380
O1340       O  0.40724977  0.64163159  0.01861071    -0.73940
Al1341     Al  0.35347805  0.67510897  0.97912311     1.90120
O1342       O  0.42107805  0.68949719  0.97848823    -0.73010
O1343       O  0.40683719  0.68135471  0.06778668    -0.72860
O1344       O  0.41588144  0.72792039  0.02436855    -0.78520
O1345       O  0.35734528  0.68157787  0.07411010    -0.76720
O1346       O  0.37018240  0.68873967  0.01474104    -1.12850
O1347       O  0.31186552  0.68036561  0.03551440    -0.72050
C1348       C  0.30832688  0.65540377  0.02058565     0.98670
C1349       C  0.40649644  0.70311802  0.95674050     0.95070
Al1350     Al  0.40992044  0.68501820  0.02196870     1.55560
O1351       O  0.31905654  0.70369582  0.97700515    -0.76670
C1352       C  0.38371289  0.67826771  0.08515629     0.99230
C1353       C  0.39750937  0.62795802  0.99415403     0.94110
O1354       O  0.38222106  0.64208604  0.97343809    -0.81990
O1355       O  0.38703210  0.89374728  0.04093402    -0.81450
C1356       C  0.40453822  0.49645925  0.97767756     0.97900
O1357       O  0.41984800  0.97980864  0.99599408    -0.70570
O1358       O  0.42462444  0.94197351  0.04262871    -0.74160
Al1359     Al  0.41792460  0.93680131  0.99707088     1.48980
C1360       C  0.40730446  0.95558643  0.06199959     0.93160
O1361       O  0.32414911  0.95371003  0.02789093    -0.80380
O1362       O  0.32231584  0.92231734  0.96899289    -0.73940
Al1363     Al  0.35800130  0.92535423  0.03186933     1.90120
O1364       O  0.33664359  0.98083276  0.98745449    -0.73010
O1365       O  0.37413764  0.92153702  0.94045975    -0.72860
O1366       O  0.38581391  0.98442085  0.95787506    -0.78520
O1367       O  0.42080216  0.93468524  0.94957450    -0.76720
O1368       O  0.37719453  0.93779485  0.99841645    -1.12850
O1369       O  0.41749985  0.89272776  0.00037802    -0.72050
C1370       C  0.40517117  0.87911740  0.02338949     0.98670
C1371       C  0.31827275  0.97458616  0.00834238     0.95070
Al1372     Al  0.35661613  0.95102088  0.96577585     1.55560
O1373       O  0.37878471  0.95416458  0.05751917    -0.76670
C1374       C  0.39966558  0.92757671  0.92989992     0.99230
C1375       C  0.31718003  0.90018462  0.98717992     0.94110
O1376       O  0.33491472  0.89512619  0.01010968    -0.81990
C1377       C  0.40140813  0.59453709  0.99070123    -0.04990
C1378       C  0.42362058  0.58155824  0.97103768    -0.02110
C1379       C  0.42677864  0.54950975  0.96875255     0.02880
C1380       C  0.40525843  0.53023763  0.98281328    -0.04990
C1381       C  0.38512785  0.54343873  0.00462504    -0.02090
C1382       C  0.38246419  0.57519242  0.00773590     0.02880
C1383       C  0.44310419  0.60084609  0.95275347     0.37530
C1384       C  0.37036619  0.52502110  0.02762258     0.37520
C1385       C  0.35945264  0.58776888  0.02817083     0.35940
C1386       C  0.45510234  0.53717443  0.95735696     0.35940
N1387       N  0.34059298  0.59698338  0.04433096    -0.38880
N1388       N  0.47898949  0.52884183  0.94990921    -0.38880
N1389       N  0.35893623  0.51236221  0.04788278    -0.38320
N1390       N  0.45865161  0.61540447  0.93719766    -0.38320
C1391       C  0.41032431  0.84554958  0.03029888    -0.04990
C1392       C  0.39928274  0.83257954  0.05857021    -0.02110
C1393       C  0.39719535  0.80064873  0.06211154     0.02880
C1394       C  0.40847561  0.78065322  0.03892341    -0.04990
C1395       C  0.42460631  0.79362745  0.01362802    -0.02090
C1396       C  0.42406495  0.82552755  0.00840071     0.02880
C1397       C  0.39001587  0.85177422  0.08457300     0.37530
C1398       C  0.44269701  0.77461345  0.99318430     0.37520
C1399       C  0.43698885  0.83721178  0.97979453     0.35940
C1400       C  0.38338152  0.78828512  0.08995928     0.35940
N1401       N  0.44717146  0.84631585  0.95681711    -0.38880
N1402       N  0.37210511  0.77754058  0.11156880    -0.38880
N1403       N  0.45823498  0.76003745  0.97734352    -0.38320
N1404       N  0.38265998  0.86718047  0.10522943    -0.38320
C1405       C  0.35920395  0.69581068  0.17660116    -0.04990
C1406       C  0.35069698  0.66759706  0.16318276    -0.02110
C1407       C  0.36419414  0.65778031  0.13504730     0.02880
C1408       C  0.38563812  0.67632882  0.11977607    -0.04990
C1409       C  0.39796762  0.70153327  0.13607749    -0.02090
C1410       C  0.38453611  0.71156944  0.16417342     0.02880
C1411       C  0.32647382  0.64972467  0.17669498     0.37530
C1412       C  0.42237378  0.71897988  0.12232656     0.37520
C1413       C  0.39679148  0.73825921  0.18014166     0.35940
C1414       C  0.35417722  0.62960018  0.12054126     0.35940
N1415       N  0.40662143  0.75943590  0.19296983    -0.38880
N1416       N  0.34576891  0.60678783  0.10995234    -0.38880
N1417       N  0.44183697  0.73290169  0.11135528    -0.38320
N1418       N  0.30718186  0.63538270  0.18741323    -0.38320
C1419       C  0.23597402  0.70867498  0.24924607    -0.04990
C1420       C  0.21915263  0.69968472  0.22224033    -0.02110
C1421       C  0.18803866  0.70737972  0.21928750     0.02880
C1422       C  0.17399703  0.72451613  0.24314650    -0.04990
C1423       C  0.19002511  0.73059076  0.27140284    -0.02090
C1424       C  0.22086301  0.72238726  0.27465211     0.02880
C1425       C  0.23422011  0.68378135  0.19689032     0.37530
C1426       C  0.17569141  0.74748291  0.29639936     0.37520
C1427       C  0.23756907  0.73095113  0.30303963     0.35940
C1428       C  0.17123592  0.69969297  0.19075414     0.35940
N1429       N  0.25059056  0.73791135  0.32576343    -0.38880
N1430       N  0.15782184  0.69357190  0.16800612    -0.38880
N1431       N  0.16548950  0.76219555  0.31616732    -0.38320
N1432       N  0.24609041  0.67117176  0.17652788    -0.38320
C1433       C  0.48639872  0.72539560  0.27252819    -0.04990
C1434       C  0.47314748  0.72935872  0.30242129    -0.02110
C1435       C  0.44176857  0.72390434  0.30643679     0.02880
C1436       C  0.42323864  0.71583863  0.28051254    -0.04990
C1437       C  0.43767383  0.70551034  0.25296333    -0.02090
C1438       C  0.46883541  0.71173083  0.24826651     0.02880
C1439       C  0.49181869  0.73825479  0.32934958     0.37530
C1440       C  0.42178466  0.68546044  0.23124967     0.37520
C1441       C  0.48221104  0.70512830  0.21807405     0.35940
C1442       C  0.42959473  0.72189608  0.33771775     0.35940
N1443       N  0.49277158  0.69994485  0.19391479    -0.38880
N1444       N  0.42059098  0.71924067  0.36291369    -0.38880
N1445       N  0.41007730  0.66793548  0.21471885    -0.38320
N1446       N  0.00667733  0.74536899  0.35082138    -0.38320
C1447       C  0.48838311  0.97409381  0.73662694    -0.04990
C1448       C  0.47356007  0.99515659  0.71607287    -0.02110
C1449       C  0.44179217  0.99391529  0.71060275     0.02880
C1450       C  0.42341275  0.97354035  0.72759748    -0.04350
C1451       C  0.43826895  0.95132115  0.74664579    -0.02090
C1452       C  0.47040067  0.95151504  0.75089405     0.02880
C1453       C  0.49009702  0.51973456  0.70125573     0.37530
C1454       C  0.42090184  0.92776195  0.76202029     0.37520
C1455       C  0.48470916  0.92816888  0.77002718     0.35940
C1456       C  0.42841099  0.51425605  0.68736719     0.35940
N1457       N  0.49597073  0.90948301  0.78531200    -0.38880
N1458       N  0.41801316  0.53051189  0.66881449    -0.38880
N1459       N  0.40725589  0.90887770  0.77430388    -0.38320
N1460       N  0.00254080  0.53960205  0.68924371    -0.38320
C1461       C  0.23851017  0.96090363  0.77370047    -0.04990
C1462       C  0.21995268  0.96961356  0.74811738    -0.02110
C1463       C  0.18822986  0.97207283  0.75156295     0.02880
C1464       C  0.17427086  0.96173024  0.77918117    -0.04990
C1465       C  0.19248533  0.94716072  0.80219217    -0.02090
C1466       C  0.22471984  0.94873342  0.80056310     0.02880
C1467       C  0.23353444  0.97685682  0.71832946     0.37530
C1468       C  0.17817607  0.92984866  0.82670665     0.37520
C1469       C  0.24363721  0.93752643  0.82612646     0.35940
C1470       C  0.17092022  0.98725427  0.72708669     0.35940
N1471       N  0.25881497  0.92868081  0.84655302    -0.38880
N1472       N  0.15933742  0.00028660  0.70668846    -0.38880
N1473       N  0.16674180  0.91591506  0.84620815    -0.38320
N1474       N  0.24433105  0.98163390  0.69432775    -0.38320
C1475       C  0.36796795  0.95425179  0.84037940    -0.04990
C1476       C  0.38924800  0.97294289  0.85727755    -0.02110
C1477       C  0.40618566  0.96126127  0.88314904     0.02880
C1478       C  0.40026624  0.93218731  0.89488386    -0.04990
C1479       C  0.38263802  0.91244738  0.87574304    -0.02090
C1480       C  0.36676485  0.92305354  0.84862545     0.02880
C1481       C  0.39381338  0.50450026  0.84879376     0.37530
C1482       C  0.38045643  0.88121849  0.88538310     0.37520
C1483       C  0.34809737  0.90207633  0.83044151     0.35940
C1484       C  0.43115720  0.97838344  0.89647505     0.35940
N1485       N  0.33322541  0.88555332  0.81555442    -0.38880
N1486       N  0.45228123  0.49152407  0.90556684    -0.38880
N1487       N  0.37987962  0.85663739  0.89462128    -0.38320
N1488       N  0.39731025  0.52983129  0.84261708    -0.38320
C1489       C  0.13866082  0.94889095  0.61217954    -0.04990
C1490       C  0.12702023  0.97766360  0.62073225    -0.02110
C1491       C  0.10727034  0.98075030  0.64595179     0.02880
C1492       C  0.10733088  0.95884022  0.67000991    -0.04990
C1493       C  0.12370823  0.93148108  0.66475313    -0.02090
C1494       C  0.13655008  0.92540340  0.63467605     0.02880
C1495       C  0.13567498  0.50517110  0.60500175     0.37530
C1496       C  0.12899465  0.91087882  0.69047223     0.37520
C1497       C  0.14778711  0.89538645  0.62697601     0.35940
C1498       C  0.08680375  0.50689385  0.64653089     0.35940
N1499       N  0.15671363  0.87137173  0.62064998    -0.38880
N1500       N  0.07056828  0.52768637  0.64660765    -0.38880
N1501       N  0.13403461  0.89527531  0.71164005    -0.38320
N1502       N  0.14144153  0.52894448  0.59537512    -0.38320
C1503       C  0.10891286  0.70894457  0.33857147    -0.04990
C1504       C  0.12228734  0.72987355  0.36058208    -0.02110
C1505       C  0.14092565  0.71950512  0.38538665     0.02880
C1506       C  0.13911319  0.68919630  0.39501131    -0.04990
C1507       C  0.12604064  0.66783514  0.37375113    -0.02090
C1508       C  0.11283816  0.67749345  0.34465171     0.02880
C1509       C  0.11581973  0.76224288  0.36024949     0.37530
C1510       C  0.12734589  0.63587041  0.38129611     0.37520
C1511       C  0.10148032  0.65514123  0.32231990     0.35940
C1512       C  0.16120225  0.74058520  0.40167461     0.35940
N1513       N  0.09261915  0.63721088  0.30441963    -0.38880
N1514       N  0.17791819  0.75756648  0.41361486    -0.38880
N1515       N  0.12873981  0.61017591  0.38676779    -0.38320
N1516       N  0.11108450  0.78809744  0.36190546    -0.38320
C1517       C  0.16638981  0.60293128  0.51760940    -0.04990
C1518       C  0.18377295  0.58621163  0.53965545    -0.02110
C1519       C  0.18034821  0.55420094  0.54133044     0.02880
C1520       C  0.15725190  0.53955761  0.52329894    -0.04990
C1521       C  0.14109696  0.55648254  0.50043673    -0.02090
C1522       C  0.14649755  0.58761368  0.49686049     0.02880
C1523       C  0.20487300  0.60196379  0.56053742     0.37530
C1524       C  0.11763262  0.54309808  0.48079953     0.37520
C1525       C  0.12958246  0.60422643  0.47292992     0.35940
C1526       C  0.20005795  0.53654834  0.56185621     0.35940
N1527       N  0.11554225  0.61672030  0.45382334    -0.38880
N1528       N  0.21576843  0.52238853  0.57822553    -0.38880
N1529       N  0.09767446  0.53593608  0.46443042    -0.38320
N1530       N  0.22165915  0.61463069  0.57724158    -0.38320
C1531       C  0.14979637  0.78783539  0.47745754    -0.04990
C1532       C  0.13027555  0.80623979  0.45876654    -0.02110
C1533       C  0.13363485  0.83813889  0.45863816     0.02880
C1534       C  0.15297177  0.85320134  0.48098809    -0.04990
C1535       C  0.17230841  0.83502849  0.49998324    -0.02090
C1536       C  0.17164671  0.80283781  0.49739558     0.02880
C1537       C  0.10529295  0.79303687  0.44051013     0.37530
C1538       C  0.19384974  0.84926871  0.52169778     0.37520
C1539       C  0.19368550  0.78570592  0.51590906     0.35940
C1540       C  0.11753296  0.85478168  0.43421571     0.35940
N1541       N  0.21167626  0.77249008  0.53057127    -0.38880
N1542       N  0.10533394  0.86758934  0.41401258    -0.38880
N1543       N  0.21103944  0.86050170  0.53907060    -0.38320
N1544       N  0.08481903  0.78278200  0.42664371    -0.38320
C1545       C  0.09365219  0.51620069  0.92525401    -0.04990
C1546       C  0.06849697  0.49614641  0.92140459    -0.02110
C1547       C  0.06349179  0.98089456  0.89197723     0.02880
C1548       C  0.08635519  0.98103271  0.86873212    -0.04990
C1549       C  0.11358321  0.49696746  0.87652781    -0.02090
C1550       C  0.11407800  0.51862476  0.90043331     0.02880
C1551       C  0.04827348  0.99101820  0.94729315     0.37530
C1552       C  0.14270993  0.49056630  0.86282857     0.37520
C1553       C  0.13637971  0.54315430  0.89938001     0.35940
C1554       C  0.03517271  0.96502186  0.88564963     0.35940
N1555       N  0.15398635  0.56270881  0.89854058    -0.38880
N1556       N  0.01253038  0.95229326  0.88054071    -0.38880
N1557       N  0.16769093  0.48818789  0.85480772    -0.38320
N1558       N  0.03244186  0.98659239  0.96822999    -0.38320
C1559       C  0.27940092  0.63686997  0.02411571    -0.04990
C1560       C  0.26815243  0.61907469  0.99857154    -0.02110
C1561       C  0.23846033  0.60664876  0.99896900     0.02880
C1562       C  0.22052151  0.60812690  0.02633435    -0.04990
C1563       C  0.23264957  0.62343613  0.05294145    -0.02090
C1564       C  0.26135954  0.63855020  0.05157579     0.02880
C1565       C  0.28662505  0.61357732  0.97106984     0.37530
C1566       C  0.21499689  0.62468126  0.08136711     0.37520
C1567       C  0.27248931  0.65513996  0.07890360     0.35940
C1568       C  0.22669229  0.59265969  0.97035149     0.35940
N1569       N  0.28130712  0.66841504  0.10073186    -0.38880
N1570       N  0.21830198  0.58231216  0.94674427    -0.38880
N1571       N  0.20093069  0.62567510  0.10408964    -0.38320
N1572       N  0.30119173  0.60887703  0.94914687    -0.38320
C1573       C  0.22773004  0.50989574  0.00480891    -0.04990
C1574       C  0.24207938  0.00209600  0.97676289    -0.02110
C1575       C  0.27219410  0.99138397  0.97770485     0.02880
C1576       C  0.28831906  0.98941298  0.00690235    -0.04990
C1577       C  0.27468821  0.49987595  0.03437925    -0.02090
C1578       C  0.24433560  0.50947242  0.03363667     0.02880
C1579       C  0.22559264  0.00408527  0.94700205     0.37530
C1580       C  0.29198457  0.50289600  0.06338062     0.37520
C1581       C  0.23127447  0.51969799  0.06300700     0.35940
C1582       C  0.28553721  0.98174800  0.94831988     0.35940
N1583       N  0.22251852  0.52749343  0.08724493    -0.38880
N1584       N  0.29507446  0.97449402  0.92423577    -0.38880
N1585       N  0.30404093  0.50719637  0.08724923    -0.38320
N1586       N  0.21256674  0.00574440  0.92326989    -0.38320
C1587       C  0.11188541  0.95377596  0.02915754    -0.04990
C1588       C  0.13452487  0.94093549  0.00991752    -0.02110
C1589       C  0.13597722  0.90922846  0.00496696     0.02880
C1590       C  0.11344676  0.88985949  0.01687373    -0.04990
C1591       C  0.08727717  0.90333049  0.03015585    -0.02090
C1592       C  0.08618258  0.93537521  0.03523733     0.02880
C1593       C  0.15149441  0.96002382  0.98897891     0.37530
C1594       C  0.06130446  0.88457281  0.03758770     0.37520
C1595       C  0.05749430  0.95013874  0.04162422     0.35940
C1596       C  0.15896365  0.89706241  0.98440977     0.35940
N1597       N  0.03492377  0.96326094  0.04520916    -0.38880
N1598       N  0.17736620  0.88851442  0.96740086    -0.38880
N1599       N  0.04052949  0.86955174  0.04345911    -0.38320
N1600       N  0.16406892  0.97332955  0.96982292    -0.38320
C1601       C  0.10993783  0.70133331  0.98203158    -0.04990
C1602       C  0.09512337  0.68334829  0.95893266    -0.02110
C1603       C  0.08899364  0.65227136  0.96476174     0.02880
C1604       C  0.09790739  0.63894098  0.99360994    -0.04990
C1605       C  0.11144151  0.65738605  0.01706736    -0.02090
C1606       C  0.11690444  0.68844114  0.01156817     0.02880
C1607       C  0.08808650  0.69615295  0.92849168     0.37530
C1608       C  0.12333695  0.64364331  0.04546736     0.37520
C1609       C  0.13037324  0.70682162  0.03650682     0.35940
C1610       C  0.07480027  0.63355765  0.94053248     0.35940
N1611       N  0.14087488  0.72056831  0.05719110    -0.38880
N1612       N  0.06352952  0.61853669  0.92123401    -0.38880
N1613       N  0.13357972  0.63244382  0.06766100    -0.38320
N1614       N  0.08261036  0.70606388  0.90399662    -0.38320
C1615       C  0.07642347  0.75952193  0.14571867    -0.04990
C1616       C  0.08740587  0.78885961  0.13624105    -0.02110
C1617       C  0.08546987  0.79810767  0.10500970     0.02880
C1618       C  0.08208009  0.77629829  0.08132182    -0.04990
C1619       C  0.07018801  0.74744388  0.08928090    -0.02090
C1620       C  0.06610638  0.73953976  0.12153146     0.02880
C1621       C  0.10622479  0.80856907  0.15595515     0.37530
C1622       C  0.06231994  0.72610524  0.06455775     0.37520
C1623       C  0.05482440  0.70976069  0.12959552     0.35940
C1624       C  0.09258553  0.82948108  0.09686884     0.35940
N1625       N  0.04587850  0.68590236  0.13605018    -0.38880
N1626       N  0.09887115  0.85432114  0.09102791    -0.38880
N1627       N  0.05544994  0.70912171  0.04486256    -0.38320
N1628       N  0.12220293  0.82533956  0.16930039    -0.38320
C1629       C  0.22746639  0.74194167  0.03684704    -0.04990
C1630       C  0.25170339  0.76222182  0.04256225    -0.02110
C1631       C  0.27839948  0.76014412  0.02462015     0.02880
C1632       C  0.28243183  0.73558703  0.00317610    -0.04990
C1633       C  0.25851642  0.71421205  0.99936065    -0.02090
C1634       C  0.23305118  0.71542955  0.01906727     0.02880
C1635       C  0.24714504  0.78786105  0.06357204     0.37530
C1636       C  0.25844266  0.69276632  0.97339423     0.37520
C1637       C  0.20918832  0.69276168  0.01588786     0.35940
C1638       C  0.30076311  0.78444382  0.02686167     0.35940
N1639       N  0.19039450  0.67448107  0.01297785    -0.38880
N1640       N  0.31850607  0.80388153  0.02848237    -0.38880
N1641       N  0.25789921  0.67624721  0.95216554    -0.38320
N1642       N  0.24349916  0.80836061  0.08025922    -0.38320
C1643       C  0.28790479  0.88257784  0.98491843    -0.04990
C1644       C  0.28283476  0.85941768  0.96233046    -0.02110
C1645       C  0.25575016  0.84159866  0.96249808     0.02880
C1646       C  0.23292831  0.84705290  0.98509523    -0.04990
C1647       C  0.23801511  0.87084161  0.00740691    -0.02090
C1648       C  0.26525732  0.88791768  0.00752801     0.02880
C1649       C  0.30620089  0.85242528  0.93996379     0.37530
C1650       C  0.21547930  0.87815475  0.03100200     0.37520
C1651       C  0.26996534  0.91041732  0.03218263     0.35940
C1652       C  0.25256013  0.81637776  0.94060958     0.35940
N1653       N  0.27238638  0.92756620  0.05275452    -0.38880
N1654       N  0.25019739  0.79617380  0.92321702    -0.38880
N1655       N  0.19794513  0.88427136  0.05007186    -0.38320
N1656       N  0.32434823  0.84582146  0.92180049    -0.38320
C1657       C  0.44594043  0.74167912  0.87480337    -0.04990
C1658       C  0.42321227  0.75790043  0.89055516    -0.02110
C1659       C  0.41062310  0.74610622  0.91811264     0.02880
C1660       C  0.42316423  0.71938309  0.93159306    -0.04990
C1661       C  0.45148926  0.70860411  0.92026886    -0.02090
C1662       C  0.46199492  0.71872151  0.89104109     0.02880
C1663       C  0.41249362  0.78594097  0.87712176     0.37530
C1664       C  0.47026098  0.68799995  0.93857599     0.37520
C1665       C  0.48846243  0.70472995  0.87686049     0.35940
C1666       C  0.38531073  0.76175096  0.93272510     0.35940
N1667       N  0.50952802  0.69356002  0.86544680    -0.38880
N1668       N  0.36516509  0.77421345  0.94449453    -0.38880
N1669       N  0.48608510  0.67261009  0.95356979    -0.38320
N1670       N  0.40623184  0.80838531  0.86476074    -0.38320
C1671       C  0.49228917  0.64207167  0.77521242    -0.04990
C1672       C  0.49208052  0.62180435  0.80109436    -0.02110
C1673       C  0.01185733  0.59598778  0.80204204     0.02880
C1674       C  0.03198214  0.58987958  0.77721271    -0.04990
C1675       C  0.03238239  0.61003706  0.75161443    -0.02090
C1676       C  0.01308901  0.63575289  0.75056513     0.02880
C1677       C  0.47171092  0.62733959  0.82695856     0.37530
C1678       C  0.05218222  0.60408466  0.72526765     0.37520
C1679       C  0.01441238  0.65484117  0.72289651     0.35940
C1680       C  0.51076920  0.57503428  0.82805755     0.35940
N1681       N  0.01571817  0.66980653  0.70074349    -0.38880
N1682       N  0.50992118  0.55822432  0.84877466    -0.38880
N1683       N  0.06718708  0.60016645  0.70353353    -0.38320
N1684       N  0.45541362  0.63169243  0.84761513    -0.38320
C1685       C  0.37840410  0.58850164  0.77769768    -0.04990
C1686       C  0.40540501  0.59273067  0.76053818    -0.02110
C1687       C  0.40938451  0.61918092  0.74274827     0.02880
C1688       C  0.38829083  0.64341222  0.74513456    -0.04990
C1689       C  0.36142060  0.63902742  0.76263865    -0.02090
C1690       C  0.35809597  0.61304837  0.78107986     0.02880
C1691       C  0.42920232  0.56971556  0.76142714     0.37530
C1692       C  0.33676910  0.66109105  0.76178495     0.37520
C1693       C  0.33440910  0.61224773  0.80442742     0.35940
C1694       C  0.43446973  0.62061530  0.72106621     0.35940
N1695       N  0.31608624  0.61211113  0.82365823    -0.38880
N1696       N  0.45410275  0.62123122  0.70325992    -0.38880
N1697       N  0.31637800  0.67782276  0.76151304    -0.38320
N1698       N  0.44830896  0.55154294  0.76250126    -0.38320
C1699       C  0.19657854  0.76111585  0.64060626    -0.04990
C1700       C  0.16894517  0.76991095  0.62595910    -0.02110
C1701       C  0.15985988  0.75632904  0.59723251     0.02880
C1702       C  0.17795249  0.73308323  0.58351214    -0.04990
C1703       C  0.20799065  0.72876981  0.59515474    -0.02090
C1704       C  0.21754407  0.74379590  0.62299624     0.02880
C1705       C  0.14854992  0.79083888  0.64162463     0.37530
C1706       C  0.22853932  0.70767565  0.57988728     0.37520
C1707       C  0.24891159  0.74122415  0.63374143     0.35940
C1708       C  0.13146160  0.76589271  0.58233221     0.35940
N1709       N  0.27440714  0.73959589  0.64097914    -0.38880
N1710       N  0.10882537  0.77367042  0.57057209    -0.38880
N1711       N  0.24499303  0.69084190  0.56776197    -0.38320
N1712       N  0.13212310  0.80756099  0.65390390    -0.38320
C1713       C  0.09206121  0.76168648  0.72619011    -0.04990
C1714       C  0.07652994  0.73508129  0.73541484    -0.02110
C1715       C  0.04867559  0.73706887  0.75113027     0.02880
C1716       C  0.03097128  0.76353862  0.74960399    -0.04990
C1717       C  0.04443965  0.79000991  0.73742552    -0.02090
C1718       C  0.07554468  0.78952166  0.72785823     0.02880
C1719       C  0.08592049  0.70512703  0.72578689     0.37530
C1720       C  0.02645937  0.81757684  0.73503594     0.37520
C1721       C  0.08967804  0.81724909  0.71760398     0.35940
C1722       C  0.04025013  0.71299968  0.77225718     0.35940
N1723       N  0.10068667  0.83953357  0.70917327    -0.38880
N1724       N  0.03519874  0.69462259  0.79071590    -0.38880
N1725       N  0.01199141  0.83953764  0.73302626    -0.38320
N1726       N  0.09029174  0.68036797  0.71778394    -0.38320
C1727       C  0.27975510  0.77315890  0.76692489    -0.04990
C1728       C  0.29721166  0.75254581  0.74936022    -0.02110
C1729       C  0.32882822  0.74941399  0.75527824     0.02880
C1730       C  0.34281333  0.76409333  0.78147870    -0.04990
C1731       C  0.32590604  0.78715498  0.79675662    -0.02090
C1732       C  0.29496385  0.79266087  0.78819770     0.02880
C1733       C  0.28280105  0.73501250  0.72445091     0.37530
C1734       C  0.34000917  0.80613049  0.82049816     0.37520
C1735       C  0.28031259  0.82074853  0.79744602     0.35940
C1736       C  0.34690967  0.73412703  0.73180244     0.35940
N1737       N  0.26966235  0.84412731  0.80348075    -0.38880
N1738       N  0.35974303  0.72271051  0.71134024    -0.38880
N1739       N  0.34968824  0.82227538  0.83963459    -0.38320
N1740       N  0.27156003  0.72079548  0.70457211    -0.38320
C1741       C  0.15490826  0.78687489  0.83283164    -0.04990
C1742       C  0.17096600  0.80794314  0.85171907    -0.02110
C1743       C  0.15791947  0.81962879  0.87926130     0.02880
C1744       C  0.13023735  0.80767864  0.89039264    -0.04990
C1745       C  0.11274913  0.78891295  0.87017250    -0.02090
C1746       C  0.12518200  0.77817851  0.84166334     0.02880
C1747       C  0.20304425  0.81310873  0.84649264     0.37530
C1748       C  0.08306926  0.77866504  0.88019061     0.37520
C1749       C  0.10862601  0.75598688  0.82299141     0.35940
C1750       C  0.17537794  0.84097619  0.89823470     0.35940
N1751       N  0.09588282  0.73763793  0.80840250    -0.38880
N1752       N  0.19053361  0.85805722  0.91201909    -0.38880
N1753       N  0.05926010  0.77081440  0.88822939    -0.38320
N1754       N  0.22902630  0.81633433  0.84402406    -0.38320
C1755       C  0.24465502  0.65003602  0.74132684    -0.04990
C1756       C  0.24557451  0.63353831  0.76980050    -0.02110
C1757       C  0.25771785  0.60372809  0.77100396     0.02880
C1758       C  0.27305581  0.59116710  0.74495117    -0.04990
C1759       C  0.27277894  0.60798772  0.71654403    -0.02090
C1760       C  0.25730686  0.63639002  0.71440187     0.02880
C1761       C  0.23439149  0.64707116  0.79851987     0.37530
C1762       C  0.28827980  0.59626242  0.68921539     0.37520
C1763       C  0.25509784  0.65187281  0.68455581     0.35940
C1764       C  0.25478655  0.58647181  0.79969482     0.35940
N1765       N  0.25317297  0.66404979  0.66064315    -0.38880
N1766       N  0.25216838  0.57282297  0.82259274    -0.38880
N1767       N  0.30095612  0.58740826  0.66736638    -0.38320
N1768       N  0.22633195  0.65746444  0.82197449    -0.38320
C1769       C  0.14111629  0.58279742  0.75005864    -0.04990
C1770       C  0.14123401  0.60078378  0.72335734    -0.02110
C1771       C  0.14570985  0.63217453  0.72636166     0.02880
C1772       C  0.14992750  0.64578797  0.75683701    -0.04990
C1773       C  0.15216905  0.62688438  0.78324325    -0.02090
C1774       C  0.15012456  0.59533378  0.77948488     0.02880
C1775       C  0.13734695  0.58653622  0.69262739     0.37530
C1776       C  0.15486424  0.63975465  0.81463290     0.37520
C1777       C  0.15773346  0.57619843  0.80605395     0.35940
C1778       C  0.14542836  0.64911322  0.69732824     0.35940
N1779       N  0.16449272  0.56113078  0.82717759    -0.38880
N1780       N  0.14442375  0.66086679  0.67312466    -0.38880
N1781       N  0.15671841  0.64990780  0.83968904    -0.38320
N1782       N  0.13430209  0.57515136  0.66824201    -0.38320
C1783       C  0.34224409  0.51192694  0.59128028    -0.04990
C1784       C  0.35617290  0.48615291  0.60554908    -0.02110
C1785       C  0.34532077  0.47472203  0.63420616     0.02880
C1786       C  0.32022689  0.98871859  0.64891627    -0.04990
C1787       C  0.30321873  0.51077339  0.63172612    -0.02090
C1788       C  0.31433039  0.52253585  0.60324839     0.02880
C1789       C  0.38200157  0.47133478  0.59089113     0.37530
C1790       C  0.27520927  0.02309090  0.64429892     0.37520
C1791       C  0.29797705  0.54689881  0.58754476     0.35940
C1792       C  0.36196476  0.45047214  0.64983042     0.35940
N1793       N  0.28484667  0.56628707  0.57500824    -0.38880
N1794       N  0.37538851  0.43119859  0.66223729    -0.38880
N1795       N  0.25283338  0.03352185  0.65367236    -0.38320
N1796       N  0.40246301  0.45930874  0.57923200    -0.38320
C1797       C  0.48839963  0.59375198  0.50534359    -0.04990
C1798       C  0.00469174  0.60295735  0.53258598    -0.02110
C1799       C  0.03284364  0.61834054  0.53035533     0.02880
C1800       C  0.04313112  0.62907820  0.50102790    -0.04990
C1801       C  0.02598428  0.62121468  0.47372104    -0.02090
C1802       C  0.49943752  0.60271218  0.47579116     0.02880
C1803       C  0.99202881  0.59762265  0.56328294     0.37530
C1804       C  0.03614257  0.63135216  0.44336999     0.37520
C1805       C  0.48261170  0.59420777  0.44758044     0.35940
C1806       C  0.05096782  0.62293353  0.55875906     0.35940
N1807       N  0.46917821  0.58752599  0.42501275    -0.38880
N1808       N  0.06528501  0.62613858  0.58156243    -0.38880
N1809       N  0.04431490  0.63951342  0.41917421    -0.38320
N1810       N  0.98157757  0.59430061  0.58776545    -0.38320
C1811       C  0.48056787  0.48801871  0.53660932    -0.04990
C1812       C  0.00558139  0.50642768  0.54424177    -0.02110
C1813       C  0.02973715  0.50890751  0.52323378     0.02880
C1814       C  0.03214633  0.98820953  0.49740657    -0.04990
C1815       C  0.00789911  0.96794227  0.49140206    -0.02090
C1816       C  0.48387842  0.96571995  0.51271955     0.02880
C1817       C  0.00673004  0.52192721  0.57432169     0.37530
C1818       C  0.00544634  0.95245335  0.46145288     0.37520
C1819       C  0.46127342  0.94182000  0.50873261     0.35940
C1820       C  0.05169580  0.53316808  0.52852177     0.35940
N1821       N  0.44324376  0.92279720  0.50557485    -0.38880
N1822       N  0.06896418  0.55259493  0.53327280    -0.38880
N1823       N  0.00231378  0.94141397  0.43692433    -0.38320
N1824       N  0.00803371  0.53343999  0.59876975    -0.38320
C1825       C  0.40110910  0.79557259  0.61860811    -0.04990
C1826       C  0.43161114  0.78768287  0.62867598    -0.02110
C1827       C  0.43928351  0.78588617  0.66042010     0.02880
C1828       C  0.41640349  0.78613645  0.68265921    -0.04990
C1829       C  0.38642730  0.79480480  0.67389093    -0.02090
C1830       C  0.37882553  0.79999993  0.64185399     0.02880
C1831       C  0.45563638  0.77787708  0.60770728     0.37530
C1832       C  0.36416561  0.80043622  0.69791336     0.37520
C1833       C  0.34821313  0.80937146  0.63299386     0.35940
C1834       C  0.47111256  0.78181262  0.67000742     0.35940
N1835       N  0.32373348  0.81684023  0.62594177    -0.38880
N1836       N  0.49670477  0.77886746  0.67634585    -0.38880
N1837       N  0.34634587  0.80608487  0.71682209    -0.38320
N1838       N  0.47607500  0.76946423  0.59306079    -0.38320
C1839       C  0.35842760  0.88434818  0.49079723    -0.04990
C1840       C  0.36430636  0.89806668  0.46143138    -0.02110
C1841       C  0.36894802  0.92968369  0.45932856     0.02880
C1842       C  0.36163725  0.94872640  0.48476026    -0.04990
C1843       C  0.34722150  0.93542068  0.51089624    -0.02090
C1844       C  0.34795769  0.90350767  0.51514094     0.02880
C1845       C  0.36061865  0.88103485  0.43252378     0.37530
C1846       C  0.32926859  0.95379804  0.53196570     0.37520
C1847       C  0.33715104  0.89082362  0.54420905     0.35940
C1848       C  0.37922800  0.94261277  0.43012757     0.35940
N1849       N  0.32847524  0.88083063  0.56745672    -0.38880
N1850       N  0.38740785  0.95268730  0.40673648    -0.38880
N1851       N  0.31321960  0.96762223  0.54794577    -0.38320
N1852       N  0.35582981  0.86923046  0.40866587    -0.38320
C1853       C  0.37166150  0.69954015  0.53359624    -0.04990
C1854       C  0.36192445  0.68179772  0.55887587    -0.02110
C1855       C  0.35874240  0.64994539  0.55523867     0.02880
C1856       C  0.36584280  0.63555473  0.52635205    -0.04990
C1857       C  0.37410660  0.65362729  0.50064858    -0.02090
C1858       C  0.37686512  0.68539591  0.50421838     0.02880
C1859       C  0.35518580  0.69637569  0.58857590     0.37530
C1860       C  0.38208389  0.63947238  0.47096892     0.37520
C1861       C  0.38722716  0.70284828  0.47774826     0.35940
C1862       C  0.34796967  0.63201402  0.58123818     0.35940
N1863       N  0.39609409  0.71507360  0.45578630    -0.38880
N1864       N  0.33932632  0.61769203  0.60194433    -0.38880
N1865       N  0.38855459  0.62824055  0.44736509    -0.38320
N1866       N  0.34980157  0.70809693  0.61223050    -0.38320
C1867       C  0.34719941  0.76818921  0.42576717    -0.04990
C1868       C  0.32699815  0.74334217  0.42196189    -0.02110
C1869       C  0.32186482  0.73020197  0.39163817     0.02880
C1870       C  0.33889778  0.74010782  0.36563964    -0.04990
C1871       C  0.36020950  0.76432670  0.37083188    -0.02090
C1872       C  0.36209774  0.77960287  0.39945660     0.02880
C1873       C  0.31206424  0.73113312  0.44913781     0.37530
C1874       C  0.38233768  0.77454795  0.34833862     0.37520
C1875       C  0.38268589  0.80575522  0.40202836     0.35940
C1876       C  0.29892778  0.70688713  0.38713144     0.35940
N1877       N  0.40059802  0.82507757  0.40229918    -0.38880
N1878       N  0.28050753  0.68832025  0.38349850    -0.38880
N1879       N  0.40136818  0.78551357  0.33359285    -0.38320
N1880       N  0.30021652  0.72143910  0.47095974    -0.38320
C1881       C  0.03952956  0.73711433  0.52670008    -0.04990
C1882       C  0.01540439  0.71642169  0.52934789    -0.02110
C1883       C  0.48997068  0.71850099  0.50907249     0.02880
C1884       C  0.48581153  0.74450404  0.48992771    -0.04990
C1885       C  0.00989654  0.76546708  0.48780694    -0.02090
C1886       C  0.03491042  0.76361210  0.50860864     0.02880
C1887       C  0.01557940  0.69465514  0.55462133     0.37530
C1888       C  0.01042550  0.78709994  0.46243361     0.37520
C1889       C  0.05689618  0.78825897  0.51030795     0.35940
C1890       C  0.46793238  0.69389011  0.50821428     0.35940
N1891       N  0.07416113  0.80811419  0.51187945    -0.38880
N1892       N  0.45084777  0.67385777  0.50761497    -0.38880
N1893       N  0.01179115  0.80343711  0.44138122    -0.38320
N1894       N  0.01476808  0.67820415  0.57562063    -0.38320
C1895       C  0.48498140  0.85155573  0.51552235    -0.04990
C1896       C  0.00076822  0.85921918  0.54367568    -0.02110
C1897       C  0.02695261  0.87814216  0.54300386     0.02880
C1898       C  0.03864020  0.88777724  0.51406488    -0.04990
C1899       C  0.02344314  0.87887030  0.48596711    -0.02090
C1900       C  0.49558172  0.86326476  0.48691001     0.02880
C1901       C  0.48903411  0.84950575  0.57349288     0.37530
C1902       C  0.03610540  0.88553421  0.45555227     0.37520
C1903       C  0.47782285  0.85984812  0.45802755     0.35940
C1904       C  0.04260324  0.88662453  0.57193824     0.35940
N1905       N  0.46378538  0.85763168  0.43492507    -0.38880
N1906       N  0.05519557  0.89338816  0.59498225    -0.38880
N1907       N  0.04555066  0.89046337  0.43093274    -0.38320
N1908       N  0.47983884  0.84242981  0.59763398    -0.38320
C1909       C  0.19489782  0.00391776  0.36284609    -0.04990
C1910       C  0.16672646  0.01431557  0.37402760    -0.02110
C1911       C  0.15372084  0.00060173  0.40048749     0.02880
C1912       C  0.17102754  0.97993882  0.41944046    -0.04990
C1913       C  0.20202828  0.97476328  0.41135064    -0.02090
C1914       C  0.21343634  0.98597905  0.38274801     0.02880
C1915       C  0.14936985  0.03655619  0.35608738     0.37530
C1916       C  0.22176721  0.95588275  0.43066670     0.37520
C1917       C  0.24366001  0.97738127  0.37244033     0.35940
C1918       C  0.12137436  0.00549690  0.40508500     0.35940
N1919       N  0.26774293  0.97052763  0.36412300    -0.38880
N1920       N  0.09523202  0.00875271  0.40678269    -0.38880
N1921       N  0.23768365  0.94086625  0.44597781    -0.38320
N1922       N  0.13550371  0.55436713  0.34196985    -0.38320
C1923       C  0.11250440  0.54858443  0.12140017    -0.04990
C1924       C  0.10794680  0.51852920  0.13153069    -0.02110
C1925       C  0.12409312  0.50703849  0.15789136     0.02880
C1926       C  0.14687096  0.52494680  0.17343147    -0.04990
C1927       C  0.14885842  0.55610539  0.16527464    -0.02090
C1928       C  0.13011391  0.56802746  0.14099992     0.02880
C1929       C  0.08837672  0.99833629  0.11366226     0.37530
C1930       C  0.17062818  0.57615072  0.18089398     0.37520
C1931       C  0.12918185  0.60053618  0.13596394     0.35940
C1932       C  0.11723376  0.97642255  0.16826586     0.35940
N1933       N  0.12820623  0.62669912  0.13348871    -0.38880
N1934       N  0.11161579  0.95201031  0.17632678    -0.38880
N1935       N  0.18795330  0.59227774  0.19320738    -0.38320
N1936       N  0.07295438  0.98135612  0.10013442    -0.38320
C1937       C  0.23495705  0.88778077  0.26911387    -0.04990
C1938       C  0.24664152  0.87517727  0.24085605    -0.02110
C1939       C  0.26106010  0.84649222  0.24059153     0.02880
C1940       C  0.26562264  0.83008527  0.26861603    -0.04990
C1941       C  0.25471099  0.84259573  0.29696626    -0.02090
C1942       C  0.23883950  0.87090718  0.29713947     0.02880
C1943       C  0.24417717  0.89139650  0.21132038     0.37530
C1944       C  0.25910733  0.82585274  0.32581857     0.37520
C1945       C  0.22724951  0.88292279  0.32635009     0.35940
C1946       C  0.27199759  0.83445259  0.21099433     0.35940
N1947       N  0.21792108  0.89251696  0.34965470    -0.38880
N1948       N  0.28029953  0.82545160  0.18703023    -0.38880
N1949       N  0.26263646  0.81238223  0.34879873    -0.38320
N1950       N  0.24276205  0.90397492  0.18759680    -0.38320
C1951       C  0.13499735  0.84109983  0.29438399    -0.04990
C1952       C  0.15975900  0.84559685  0.27416511    -0.02110
C1953       C  0.15748417  0.86889072  0.25181279     0.02880
C1954       C  0.13703259  0.89321701  0.25651463    -0.04990
C1955       C  0.11585538  0.89116626  0.28141750    -0.02090
C1956       C  0.11691184  0.86625128  0.30201359     0.02880
C1957       C  0.18165075  0.82134905  0.26954539     0.37530
C1958       C  0.09117510  0.91299129  0.28408781     0.37520
C1959       C  0.09487995  0.86334840  0.32681629     0.35940
C1960       C  0.17258325  0.86539510  0.22201217     0.35940
N1961       N  0.07718923  0.86083736  0.34648284    -0.38880
N1962       N  0.18355127  0.86189135  0.19775458    -0.38880
N1963       N  0.07103341  0.92992726  0.28584779    -0.38320
N1964       N  0.19952355  0.80258480  0.26471573    -0.38320
C1965       C  0.44245682  0.01400004  0.13857335    -0.04990
C1966       C  0.41169805  0.01491012  0.12880170    -0.02110
C1967       C  0.40016846  0.99236295  0.10806347     0.02880
C1968       C  0.42000848  0.97469639  0.08916800    -0.04990
C1969       C  0.45170151  0.97658233  0.09615495    -0.02090
C1970       C  0.46273507  0.99659925  0.12010446     0.02880
C1971       C  0.39118689  0.53698629  0.14249007     0.37530
C1972       C  0.47192241  0.95360548  0.08372216     0.37520
C1973       C  0.49484184  0.99739522  0.12844337     0.35940
C1974       C  0.36934879  0.98197197  0.11288455     0.35940
N1975       N  0.02020842  0.99872830  0.13613738    -0.38880
N1976       N  0.34562834  0.97185790  0.11801273    -0.38880
N1977       N  0.48701525  0.93389835  0.07468718    -0.38320
N1978       N  0.37479592  0.55484284  0.15305928    -0.38320
C1979       C  0.34253747  0.51425741  0.21387022    -0.04990
C1980       C  0.32586088  0.54048359  0.22331228    -0.02110
C1981       C  0.29405692  0.53846616  0.22999830     0.02880
C1982       C  0.27955056  0.50972339  0.23092590    -0.04990
C1983       C  0.29730454  0.98387559  0.22378434    -0.02090
C1984       C  0.32632451  0.98671684  0.21074648     0.02880
C1985       C  0.34108837  0.56966711  0.22485591     0.37530
C1986       C  0.29010354  0.95468196  0.23694474     0.37520
C1987       C  0.33869181  0.96060080  0.19444638     0.35940
C1988       C  0.27659395  0.56573072  0.23636543     0.35940
N1989       N  0.34702529  0.93940218  0.18081578    -0.38880
N1990       N  0.26261071  0.58753397  0.24136247    -0.38880
N1991       N  0.28792547  0.93131775  0.24891754    -0.38320
N1992       N  0.35347228  0.59287605  0.22607729    -0.38320
C1993       C  0.09255351  0.51777558  0.28226234    -0.04990
C1994       C  0.07279164  0.00490300  0.30463056    -0.02110
C1995       C  0.04073652  0.00911289  0.30235678     0.02880
C1996       C  0.02677556  0.52166247  0.27501143    -0.04990
C1997       C  0.04639567  0.53577912  0.25332109    -0.02090
C1998       C  0.07865636  0.53556339  0.25812103     0.02880
C1999       C  0.08476640  0.98602615  0.32972276     0.37530
C2000       C  0.03385448  0.55038096  0.22557788     0.37520
C2001       C  0.09705721  0.55453014  0.23830082     0.35940
C2002       C  0.02270215  0.00181814  0.32946747     0.35940
N2003       N  0.11119828  0.57064761  0.22294365    -0.38880
N2004       N  0.00932663  0.99661164  0.35194572    -0.38880
N2005       N  0.02406739  0.56194408  0.20329277    -0.38320
N2006       N  0.09391931  0.96991776  0.34903754    -0.38320
C2007       C  0.40817269  0.52287131  0.33749354    -0.04990
C2008       C  0.38612270  0.54516107  0.34566337    -0.02110
C2009       C  0.37955662  0.55147517  0.37794782     0.02880
C2010       C  0.39738193  0.53812383  0.40225378    -0.04990
C2011       C  0.42097717  0.51761032  0.39302116    -0.02090
C2012       C  0.42329975  0.50740348  0.36195965     0.02880
C2013       C  0.36920316  0.56039836  0.32098975     0.37530
C2014       C  0.44525669  0.00788302  0.41408731     0.37520
C2015       C  0.44115679  0.98009983  0.35592736     0.35940
C2016       C  0.35581575  0.57290742  0.38600929     0.35940
N2017       N  0.45469442  0.95775844  0.35226268    -0.38880
N2018       N  0.33682579  0.59004853  0.39249951    -0.38880
N2019       N  0.46607623  0.00033121  0.42909845    -0.38320
N2020       N  0.35559995  0.57257017  0.30128590    -0.38320
C2021       C  0.49317688  0.90105616  0.22879177    -0.04990
C2022       C  0.48835954  0.87932860  0.25239274    -0.02110
C2023       C  0.00254643  0.85065832  0.25089485     0.02880
C2024       C  0.02554756  0.84455323  0.22851818    -0.04990
C2025       C  0.02874611  0.86561643  0.20369510    -0.02090
C2026       C  0.01203881  0.89335746  0.20353569     0.02880
C2027       C  0.46893125  0.88603259  0.27884695     0.37530
C2028       C  0.04812722  0.85933756  0.17753692     0.37520
C2029       C  0.01502247  0.91447652  0.17781154     0.35940
C2030       C  0.49230203  0.82723729  0.27221054     0.35940
N2031       N  0.01740649  0.93110011  0.15710670    -0.38880
N2032       N  0.48350845  0.80907256  0.28935051    -0.38880
N2033       N  0.06221912  0.85656872  0.15507264    -0.38320
N2034       N  0.45413595  0.89035169  0.30067871    -0.38320
C2035       C  0.36372935  0.83840562  0.24023406    -0.04990
C2036       C  0.36434219  0.85525231  0.26913228    -0.02110
C2037       C  0.37518807  0.88518534  0.27009077     0.02880
C2038       C  0.38707023  0.89801884  0.24311963    -0.04990
C2039       C  0.38676890  0.88141865  0.21438767    -0.02090
C2040       C  0.37402706  0.85218701  0.21289764     0.02880
C2041       C  0.35408107  0.84328669  0.29866263     0.37530
C2042       C  0.40133491  0.89305943  0.18659753     0.37520
C2043       C  0.37301558  0.83558719  0.18348894     0.35940
C2044       C  0.37416161  0.90296494  0.29902926     0.35940
N2045       N  0.37203669  0.82229899  0.16005683    -0.38880
N2046       N  0.37339996  0.91709690  0.32199346    -0.38880
N2047       N  0.41287116  0.90158858  0.16407770    -0.38320
N2048       N  0.34638850  0.83623869  0.32342522    -0.38320
O2049       O  0.97810638  0.49856319  0.28529204    -0.81450
C2050       C  0.87699495  0.01348559  0.21418060     0.97900
O2051       O  0.89145943  0.02837110  0.23512458    -0.70570
O2052       O  0.92792563  0.03367402  0.28549695    -0.74160
Al2053     Al  0.93468836  0.02894954  0.23972868     1.48980
C2054       C  0.91640224  0.01459120  0.30433131     0.93160
O2055       O  0.92095815  0.43423142  0.26630622    -0.80380
O2056       O  0.95550782  0.43591016  0.20982090    -0.73940
Al2057     Al  0.94754140  0.46861426  0.27315148     1.90120
O2058       O  0.89614309  0.44607007  0.22339567    -0.73010
O2059       O  0.95647204  0.48903962  0.18417423    -0.72860
O2060       O  0.89161415  0.49609776  0.19546062    -0.78520
O2061       O  0.93864110  0.03387991  0.19276353    -0.76720
O2062       O  0.93589507  0.48831468  0.23959623    -1.12850
O2063       O  0.97873916  0.03030542  0.24561693    -0.72050
C2064       C  0.99271552  0.01717047  0.26835600     0.98670
C2065       C  0.90147199  0.42800121  0.24504287     0.95070
Al2066     Al  0.92598363  0.46859758  0.20529796     1.55560
O2067       O  0.91592924  0.48685827  0.29677059    -0.76670
C2068       C  0.94841754  0.01401019  0.17338339     0.99230
C2069       C  0.97618279  0.43035268  0.23000382     0.94110
O2070       O  0.97980823  0.44752705  0.25349929    -0.81990
O2071       O  0.72581776  0.43730043  0.24830062    -0.81450
C2072       C  0.62675101  0.01078989  0.28263886     0.97900
O2073       O  0.63772084  0.48987961  0.29985663    -0.70570
O2074       O  0.63796935  0.44604745  0.26099824    -0.74160
Al2075     Al  0.66804350  0.45925783  0.28926263     1.48980
C2076       C  0.64557466  0.42384850  0.24471878     0.93160
O2077       O  0.66965966  0.48263873  0.20008845    -0.80380
O2078       O  0.73229706  0.01845962  0.25916998    -0.73940
Al2079     Al  0.69754581  0.46084848  0.22537674     1.90120
O2080       O  0.68191524  0.02769065  0.21814787    -0.73010
O2081       O  0.69272006  0.02079724  0.30881333    -0.72860
O2082       O  0.64467514  0.02473830  0.26487396    -0.78520
O2083       O  0.69665310  0.47221863  0.31923519    -0.76720
O2084       O  0.68521839  0.48010524  0.25947534    -1.12850
O2085       O  0.69445855  0.42274107  0.28457373    -0.72050
C2086       C  0.71804435  0.41779785  0.26816595     0.98670
C2087       C  0.66723439  0.01118739  0.19849295     0.95070
Al2088     Al  0.68813884  0.02014912  0.26268703     1.55560
O2089       O  0.66806684  0.42720618  0.22671984    -0.76670
C2090       C  0.69699282  0.99937049  0.32839270     0.99230
C2091       C  0.74586050  0.00569730  0.23638560     0.94110
O2092       O  0.73100979  0.48842424  0.21763243    -0.81990
O2093       O  0.93540197  0.33760690  0.49792390    -0.81450
C2094       C  0.87629100  0.23283785  0.53705222     0.97900
O2095       O  0.89951454  0.24337647  0.55154154    -0.70570
O2096       O  0.93579547  0.24755170  0.50629044    -0.74160
Al2097     Al  0.92602855  0.27587657  0.53702774     1.48980
C2098       C  0.95432541  0.25662306  0.48669036     0.93160
O2099       O  0.88930344  0.27774233  0.45722559    -0.80380
O2100       O  0.85959326  0.33717361  0.52096945    -0.73940
Al2101     Al  0.91186037  0.30731225  0.47768917     1.90120
O2102       O  0.84528889  0.28880462  0.47907114    -0.73010
O2103       O  0.86872971  0.29484609  0.57005231    -0.72860
O2104       O  0.85803359  0.25046961  0.52328274    -0.78520
O2105       O  0.91728446  0.30352683  0.56793037    -0.76720
O2106       O  0.89927032  0.29258037  0.51289855    -1.12850
O2107       O  0.95928506  0.30486475  0.52820098    -0.72050
C2108       C  0.95817892  0.33070303  0.51486675     0.98670
C2109       C  0.86054619  0.27771734  0.45634291     0.95070
Al2110     Al  0.86024845  0.29325012  0.52302564     1.55560
O2111       O  0.94827251  0.28124471  0.47257393    -0.76670
C2112       C  0.89450120  0.29921258  0.58412232     0.99230
C2113       C  0.86574358  0.35117108  0.49573593     0.94110
O2114       O  0.88002814  0.33734934  0.47428483    -0.81990
O2115       O  0.88269819  0.08874952  0.54732842    -0.81450
C2116       C  0.87041368  0.48163191  0.48481120     0.97900
O2117       O  0.85404047  0.00096605  0.49832757    -0.70570
O2118       O  0.84476242  0.04045030  0.54224303    -0.74160
Al2119     Al  0.85965275  0.04351287  0.49870985     1.48980
C2120       C  0.85860645  0.02838096  0.56579638     0.93160
O2121       O  0.94619600  0.02779576  0.55291607    -0.80380
O2122       O  0.95880739  0.04817415  0.49600880    -0.73940
Al2123     Al  0.91222162  0.05658151  0.54629622     1.90120
O2124       O  0.93030062  0.99408980  0.51994434    -0.73010
O2125       O  0.91734751  0.04666223  0.45302595    -0.72860
O2126       O  0.89521349  0.48995716  0.47261177    -0.78520
O2127       O  0.86781268  0.04366479  0.45157712    -0.76720
O2128       O  0.89839267  0.04097417  0.51026839    -1.12850
O2129       O  0.86183826  0.08695386  0.50001965    -0.72050
C2130       C  0.86961944  0.10191117  0.52447994     0.98670
C2131       C  0.94998279  0.00228032  0.53942745     0.95070
Al2132     Al  0.92363099  0.02110859  0.48714938     1.55560
O2133       O  0.88723225  0.03045743  0.56870022    -0.76670
C2134       C  0.89331485  0.04471062  0.43705010     0.99230
C2135       C  0.96024910  0.07460322  0.50843815     0.94110
O2136       O  0.93884312  0.08390205  0.52566042    -0.81990
O2137       O  0.73295742  0.25531978  0.78674144    -0.81450
C2138       C  0.62637144  0.26090282  0.72200990     0.97900
O2139       O  0.64283886  0.27853756  0.73862288    -0.70570
O2140       O  0.68218874  0.28885356  0.78451503    -0.74160
Al2141     Al  0.68653292  0.27926643  0.74015856     1.48980
C2142       C  0.67018888  0.27248652  0.80542570     0.93160
O2143       O  0.67765357  0.18726839  0.77968941    -0.80380
O2144       O  0.70567636  0.18350532  0.72094248    -0.73940
Al2145     Al  0.70282192  0.22340973  0.78032085     1.90120
O2146       O  0.64746146  0.19656879  0.74044054    -0.73010
O2147       O  0.70147480  0.23204331  0.68574943    -0.72860
O2148       O  0.63918999  0.24125914  0.70433280    -0.78520
O2149       O  0.68878940  0.27918897  0.69394589    -0.76720
O2150       O  0.68832883  0.23915800  0.74500342    -1.12850
O2151       O  0.73042855  0.28125184  0.74256197    -0.72050
C2152       C  0.74582842  0.27087588  0.76567485     0.98670
C2153       C  0.65723555  0.17851308  0.76042360     0.95070
Al2154     Al  0.67482875  0.21555355  0.71486368     1.55560
O2155       O  0.67244174  0.24389348  0.80394547    -0.76670
C2156       C  0.69729244  0.25823061  0.67536745     0.99230
C2157       C  0.72801289  0.17999283  0.73996646     0.94110
O2158       O  0.73385193  0.20026168  0.76040591    -0.81990
O2159       O  0.97849557  0.19091699  0.75487322    -0.81450
C2160       C  0.87580222  0.25780951  0.78907919     0.97900
O2161       O  0.88373599  0.23375751  0.80353256    -0.70570
O2162       O  0.89023627  0.19380407  0.76169256    -0.74160
Al2163     Al  0.91667624  0.20533299  0.79359840     1.48980
C2164       C  0.89967581  0.17502770  0.74225866     0.93160
O2165       O  0.92338101  0.24097435  0.71025635    -0.80380
O2166       O  0.98308289  0.26853929  0.77720051    -0.73940
Al2167     Al  0.95078461  0.21629654  0.73348654     1.90120
O2168       O  0.93546478  0.28354288  0.73515783    -0.73010
O2169       O  0.94137254  0.26430942  0.82339804    -0.72860
O2170       O  0.89578138  0.27498981  0.77796013    -0.78520
O2171       O  0.94089796  0.21480045  0.82817934    -0.76720
O2172       O  0.93589852  0.23049554  0.76893380    -1.12850
O2173       O  0.94588054  0.17110862  0.78732024    -0.72050
C2174       C  0.97123075  0.16955991  0.77295187     0.98670
C2175       C  0.92362009  0.26973111  0.71174505     0.95070
Al2176     Al  0.93887923  0.26996221  0.77815993     1.55560
O2177       O  0.92354136  0.18151505  0.72759046    -0.76670
C2178       C  0.94420341  0.24063421  0.84009738     0.99230
C2179       C  0.99727850  0.25990664  0.75296893     0.94110
O2180       O  0.98332623  0.24553037  0.73129533    -0.81990
O2181       O  0.64145147  0.34542593  0.02883148    -0.81450
C2182       C  0.62046131  0.23278825  0.97552359     0.97900
O2183       O  0.60120210  0.25435618  0.97273735    -0.70570
O2184       O  0.58823465  0.28260949  0.02529576    -0.74160
Al2185     Al  0.60418866  0.29671182  0.98587730     1.48980
C2186       C  0.59987700  0.28268946  0.05244722     0.93160
O2187       O  0.68056003  0.26967874  0.04466744    -0.80380
O2188       O  0.69370347  0.31176222  0.96514036    -0.73940
Al2189     Al  0.65922117  0.30639514  0.03331978     1.90120
O2190       O  0.69794143  0.26159576  0.99810719    -0.73010
O2191       O  0.64957613  0.28220896  0.93297423    -0.72860
O2192       O  0.64893389  0.23771864  0.97542210    -0.78520
O2193       O  0.61167381  0.31192639  0.94383306    -0.76720
O2194       O  0.64416762  0.29306005  0.99661605    -1.12850
O2195       O  0.60108997  0.33916966  0.99832534    -0.72050
C2196       C  0.61831174  0.35615318  0.01491160     0.98670
C2197       C  0.69962909  0.25757313  0.02677204     0.95070
Al2198     Al  0.66976167  0.27498221  0.97020543     1.55560
O2199       O  0.62683473  0.29173032  0.05689623    -0.76670
C2200       C  0.62984874  0.30069778  0.92429085     0.99230
C2201       C  0.70561140  0.32636506  0.98827660     0.94110
O2202       O  0.69506506  0.32314734  0.01552894    -0.81990
O2203       O  0.67088217  0.09622052  0.00560017    -0.81450
C2204       C  0.61208124  0.48750474  0.03562555     0.97900
O2205       O  0.63115599  0.49977166  0.05505787    -0.70570
O2206       O  0.67897311  0.01029338  0.02519797    -0.74160
Al2207     Al  0.65640608  0.03667715  0.04882614     1.48980
C2208       C  0.69601224  0.02004403  0.00451923     0.93160
O2209       O  0.63162865  0.03283365  0.96080636    -0.80380
O2210       O  0.59026987  0.09057448  0.01935006    -0.73940
Al2211     Al  0.64998720  0.06404535  0.98424895     1.90120
O2212       O  0.58474076  0.04251522  0.97501217    -0.73010
O2213       O  0.59127438  0.04681820  0.06757229    -0.72860
O2214       O  0.59418396  0.00393142  0.01975642    -0.78520
O2215       O  0.63702885  0.06303293  0.07626112    -0.76720
O2216       O  0.63344514  0.04921316  0.01789960    -1.12850
O2217       O  0.68731194  0.06900367  0.04546291    -0.72050
C2218       C  0.69064902  0.09127606  0.02691647     0.98670
C2219       C  0.60326365  0.03087317  0.95556679     0.95070
Al2220     Al  0.59273964  0.04670374  0.02052129     1.55560
O2221       O  0.68691244  0.04045768  0.98601819    -0.76670
C2222       C  0.61218995  0.05488700  0.08694331     0.99230
C2223       C  0.60088918  0.10534941  0.99624953     0.94110
O2224       O  0.61725622  0.09217233  0.97600033    -0.81990
O2225       O  0.64958643  0.14829999  0.54132621    -0.81450
C2226       C  0.64651802  0.25351839  0.47721294     0.97900
O2227       O  0.66526406  0.23747580  0.49234501    -0.70570
O2228       O  0.68014536  0.20099568  0.53699640    -0.74160
Al2229     Al  0.66717198  0.19476098  0.49337529     1.48980
C2230       C  0.66429629  0.21279292  0.55874084     0.93160
O2231       O  0.57824059  0.20049656  0.54147155    -0.80380
O2232       O  0.56964389  0.17434239  0.48380775    -0.73940
Al2233     Al  0.61563057  0.17633308  0.53772861     1.90120
O2234       O  0.58722012  0.23297779  0.50497959    -0.73010
O2235       O  0.61362992  0.18025242  0.44197768    -0.72860
O2236       O  0.62496529  0.24033548  0.46218374    -0.78520
O2237       O  0.66208327  0.19150428  0.44714753    -0.76720
O2238       O  0.62781173  0.19165300  0.50161463    -1.12850
O2239       O  0.67141086  0.15191768  0.49522400    -0.72050
C2240       C  0.66399395  0.13635126  0.51880080     0.98670
C2241       C  0.57064472  0.22415159  0.52649352     0.95070
Al2242     Al  0.60072676  0.20576720  0.47502958     1.55560
O2243       O  0.63619705  0.20699394  0.56018432    -0.76670
C2244       C  0.63918848  0.18440747  0.42973147     0.99230
C2245       C  0.57036928  0.15001375  0.49999631     0.94110
O2246       O  0.59312394  0.14471592  0.51774936    -0.81990
O2247       O  0.58564790  0.40189974  0.49218670    -0.81450
C2248       C  0.65042838  0.00667219  0.52668632     0.97900
O2249       O  0.62646779  0.49819411  0.54057973    -0.70570
O2250       O  0.58506269  0.48995299  0.50183524    -0.74160
Al2251     Al  0.59924598  0.46428057  0.53251251     1.48980
C2252       C  0.56330400  0.48005070  0.48622260     0.93160
O2253       O  0.62747743  0.46172391  0.44715720    -0.80380
O2254       O  0.66081040  0.40101227  0.50999449    -0.73940
Al2255     Al  0.60668784  0.43216149  0.47040804     1.90120
O2256       O  0.67243985  0.45002169  0.46761490    -0.73010
O2257       O  0.66110037  0.44415160  0.55962599    -0.72860
O2258       O  0.66743225  0.48765299  0.51351200    -0.78520
O2259       O  0.61203594  0.44046075  0.56589613    -0.76720
O2260       O  0.62299611  0.44691345  0.50573101    -1.12850
O2261       O  0.56680873  0.43318485  0.52769636    -0.72050
C2262       C  0.56563651  0.40819695  0.51222055     0.98670
C2263       C  0.65636962  0.46331668  0.44631931     0.95070
Al2264     Al  0.66286264  0.44513409  0.51244061     1.55560
O2265       O  0.56862379  0.45690423  0.46939037    -0.76670
C2266       C  0.63815438  0.44233812  0.57765729     0.99230
C2267       C  0.65126004  0.38736470  0.48521931     0.94110
O2268       O  0.63849865  0.40290603  0.46390110    -0.81990
O2269       O  0.78248869  0.48633129  0.79352700    -0.81450
C2270       C  0.88933874  0.47811710  0.72848967     0.97900
O2271       O  0.87321090  0.46193967  0.74575250    -0.70570
O2272       O  0.83738305  0.45123948  0.79184576    -0.74160
Al2273     Al  0.83032693  0.46235514  0.74775733     1.48980
C2274       C  0.84800845  0.46750591  0.81435568     0.93160
O2275       O  0.84107192  0.05181362  0.79304187    -0.80380
O2276       O  0.81744602  0.06067121  0.73510373    -0.73940
Al2277     Al  0.81357187  0.01723017  0.78981450     1.90120
O2278       O  0.87383742  0.03958342  0.75736642    -0.73010
O2279       O  0.81746833  0.01507488  0.69633793    -0.72860
O2280       O  0.87669026  0.99957310  0.71357693    -0.78520
O2281       O  0.82548221  0.46614776  0.70122995    -0.76720
O2282       O  0.82912882  0.00204218  0.75492608    -1.12850
O2283       O  0.78745153  0.45913148  0.75034404    -0.72050
C2284       C  0.77149978  0.46832422  0.77296904     0.98670
C2285       C  0.86530738  0.05754562  0.77832515     0.95070
Al2286     Al  0.84509899  0.02683322  0.72762112     1.55560
O2287       O  0.84183131  0.49553528  0.81510301    -0.76670
C2288       C  0.81919929  0.48918629  0.68403183     0.99230
C2289       C  0.79198616  0.06258581  0.74868079     0.94110
O2290       O  0.78411306  0.04155151  0.76712521    -0.81990
O2291       O  0.54210872  0.04220744  0.75384487    -0.81450
C2292       C  0.64118071  0.46744527  0.78353757     0.97900
O2293       O  0.63235803  0.98874692  0.80158187    -0.70570
O2294       O  0.63122455  0.03438677  0.76852979    -0.74160
Al2295     Al  0.60140773  0.01996729  0.79441059     1.48980
C2296       C  0.62434393  0.05401627  0.74906202     0.93160
O2297       O  0.59754619  0.49677522  0.70722567    -0.80380
O2298       O  0.53572786  0.46376854  0.76601670    -0.73940
Al2299     Al  0.57048238  0.01850194  0.73137499     1.90120
O2300       O  0.58235106  0.45135781  0.72108442    -0.73010
O2301       O  0.58035935  0.45841914  0.81536979    -0.72860
O2302       O  0.62220867  0.45308956  0.76682194    -0.78520
O2303       O  0.57327368  0.00663129  0.82326825    -0.76720
O2304       O  0.58370606  0.49933581  0.76456979    -1.12850
O2305       O  0.57448871  0.05647652  0.79094096    -0.72050
C2306       C  0.54995821  0.06088620  0.77500486     0.98670
C2307       C  0.59530034  0.46878037  0.70131613     0.95070
Al2308     Al  0.57973813  0.45917312  0.76742026     1.55560
O2309       O  0.59995710  0.05131336  0.73303436    -0.76670
C2310       C  0.57770392  0.48091515  0.83444984     0.99230
C2311       C  0.52234320  0.47599114  0.74242952     0.94110
O2312       O  0.53797285  0.49056698  0.72289816    -0.81990
O2313       O  0.52740670  0.25932059  0.28005181    -0.81450
C2314       C  0.64312412  0.23713823  0.23838588     0.97900
O2315       O  0.62130556  0.21930310  0.23072312    -0.70570
O2316       O  0.59283148  0.20822509  0.28298227    -0.74160
Al2317     Al  0.57862209  0.22239411  0.24139954     1.48980
C2318       C  0.59200596  0.22096228  0.30993812     0.93160
O2319       O  0.60277895  0.29730357  0.29995449    -0.80380
O2320       O  0.56519684  0.30666326  0.21483228    -0.73940
Al2321     Al  0.56576906  0.27707507  0.28659269     1.90120
O2322       O  0.60995011  0.31679849  0.25458408    -0.73010
O2323       O  0.60406117  0.26095193  0.19245528    -0.72860
O2324       O  0.63892137  0.26562930  0.24179401    -0.78520
O2325       O  0.56448303  0.23320019  0.19683565    -0.76720
O2326       O  0.58171712  0.26117264  0.25248274    -1.12850
O2327       O  0.53656061  0.21849204  0.25197689    -0.72050
C2328       C  0.51851512  0.23489177  0.26756304     0.98670
C2329       C  0.61578746  0.31626280  0.28302462     0.95070
Al2330     Al  0.60260669  0.28525087  0.22812519     1.55560
O2331       O  0.57843684  0.24589792  0.31323220    -0.76670
C2332       C  0.58117768  0.24997715  0.17967012     0.99230
C2333       C  0.54800098  0.31919472  0.23541516     0.94110
O2334       O  0.55032556  0.31152685  0.26412702    -0.81990
O2335       O  0.77755270  0.28051422  0.24862551    -0.81450
C2336       C  0.88958674  0.22138920  0.28080019     0.97900
O2337       O  0.87881736  0.24478512  0.29439422    -0.70570
O2338       O  0.86705005  0.28836661  0.25777893    -0.74160
Al2339     Al  0.84222231  0.27030987  0.28653775     1.48980
C2340       C  0.85435163  0.30608423  0.23917585     0.93160
O2341       O  0.83720073  0.23826367  0.20203063    -0.80380
O2342       O  0.78631949  0.20366166  0.27081042    -0.73940
Al2343     Al  0.80821236  0.25862566  0.22639050     1.90120
O2344       O  0.83029632  0.19366842  0.22443921    -0.73010
O2345       O  0.83335413  0.20956622  0.31650849    -0.72860
O2346       O  0.87198334  0.20389668  0.26599882    -0.78520
O2347       O  0.81843281  0.25609194  0.31832136    -0.76720
O2348       O  0.82680202  0.24488730  0.26041738    -1.12850
O2349       O  0.80969862  0.30075108  0.28254786    -0.72050
C2350       C  0.78444570  0.30162703  0.26771725     0.98670
C2351       C  0.84142198  0.20977351  0.20251266     0.95070
Al2352     Al  0.82946261  0.20516517  0.26882006     1.55560
O2353       O  0.83155226  0.29687213  0.22303460    -0.76670
C2354       C  0.82848449  0.23375123  0.33250732     0.99230
C2355       C  0.76937462  0.21145419  0.24779419     0.94110
O2356       O  0.78031597  0.22494409  0.22424761    -0.81990
O2357       O  0.82814201  0.14735556  0.00077822    -0.81450
C2358       C  0.90042329  0.24712557  0.03939020     0.97900
O2359       O  0.87677972  0.23830235  0.05350218    -0.70570
O2360       O  0.83540449  0.23566360  0.01131224    -0.74160
Al2361     Al  0.84708882  0.20762247  0.04178794     1.48980
C2362       C  0.81410695  0.22681959  0.99398404     0.93160
O2363       O  0.87756101  0.20239501  0.95572241    -0.80380
O2364       O  0.90724977  0.14163160  0.01861072    -0.73940
Al2365     Al  0.85347805  0.17510897  0.97912313     1.90120
O2366       O  0.92107805  0.18949720  0.97848824    -0.73010
O2367       O  0.90683720  0.18135471  0.06778669    -0.72860
O2368       O  0.91588144  0.22792040  0.02436856    -0.78520
O2369       O  0.85734529  0.18157787  0.07411012    -0.76720
O2370       O  0.87018240  0.18873967  0.01474105    -1.12850
O2371       O  0.81186552  0.18036560  0.03551442    -0.72050
C2372       C  0.80832688  0.15540377  0.02058567     0.98670
C2373       C  0.90649644  0.20311802  0.95674051     0.95070
Al2374     Al  0.90992044  0.18501820  0.02196871     1.55560
O2375       O  0.81905653  0.20369582  0.97700517    -0.76670
C2376       C  0.88371290  0.17826771  0.08515630     0.99230
C2377       C  0.89750937  0.12795802  0.99415404     0.94110
O2378       O  0.88222106  0.14208605  0.97343810    -0.81990
O2379       O  0.88703210  0.39374728  0.04093403    -0.81450
C2380       C  0.90453822  0.99645925  0.97767755     0.97900
O2381       O  0.91984800  0.47980864  0.99599409    -0.70570
O2382       O  0.92462444  0.44197352  0.04262872    -0.74160
Al2383     Al  0.91792460  0.43680132  0.99707089     1.48980
C2384       C  0.90730445  0.45558643  0.06199960     0.93160
O2385       O  0.82414911  0.45371004  0.02789094    -0.80380
O2386       O  0.82231584  0.42231733  0.96899290    -0.73940
Al2387     Al  0.85800129  0.42535424  0.03186934     1.90120
O2388       O  0.83664359  0.48083276  0.98745450    -0.73010
O2389       O  0.87413764  0.42153701  0.94045977    -0.72860
O2390       O  0.88581391  0.48442085  0.95787507    -0.78520
O2391       O  0.92080216  0.43468525  0.94957451    -0.76720
O2392       O  0.87719452  0.43779485  0.99841646    -1.12850
O2393       O  0.91749984  0.39272777  0.00037804    -0.72050
C2394       C  0.90517117  0.37911740  0.02338950     0.98670
C2395       C  0.81827275  0.47458616  0.00834239     0.95070
Al2396     Al  0.85661612  0.45102088  0.96577586     1.55560
O2397       O  0.87878470  0.45416458  0.05751919    -0.76670
C2398       C  0.89966558  0.42757671  0.92989994     0.99230
C2399       C  0.81718003  0.40018462  0.98717993     0.94110
O2400       O  0.83491472  0.39512619  0.01010969    -0.81990
C2401       C  0.90140813  0.09453709  0.99070124    -0.04990
C2402       C  0.92362058  0.08155824  0.97103768    -0.02110
C2403       C  0.92677864  0.04950975  0.96875255     0.02880
C2404       C  0.90525843  0.03023763  0.98281328    -0.04990
C2405       C  0.88512786  0.04343873  0.00462505    -0.02090
C2406       C  0.88246419  0.07519242  0.00773591     0.02880
C2407       C  0.94310418  0.10084610  0.95275347     0.37530
C2408       C  0.87036620  0.02502110  0.02762258     0.37520
C2409       C  0.85945265  0.08776888  0.02817085     0.35940
C2410       C  0.95510233  0.03717444  0.95735695     0.35940
N2411       N  0.84059299  0.09698338  0.04433098    -0.38880
N2412       N  0.97898948  0.02884184  0.94990918    -0.38880
N2413       N  0.85893624  0.01236220  0.04788278    -0.38320
N2414       N  0.95865160  0.11540448  0.93719765    -0.38320
C2415       C  0.91032431  0.34554958  0.03029890    -0.04990
C2416       C  0.89928274  0.33257954  0.05857023    -0.02110
C2417       C  0.89719535  0.30064874  0.06211156     0.02880
C2418       C  0.90847560  0.28065322  0.03892342    -0.04990
C2419       C  0.92460630  0.29362745  0.01362803    -0.02090
C2420       C  0.92406495  0.32552756  0.00840072     0.02880
C2421       C  0.89001587  0.35177423  0.08457302     0.37530
C2422       C  0.94269700  0.27461345  0.99318431     0.37520
C2423       C  0.93698884  0.33721178  0.97979455     0.35940
C2424       C  0.88338151  0.28828512  0.08995929     0.35940
N2425       N  0.94717145  0.34631585  0.95681712    -0.38880
N2426       N  0.87210510  0.27754058  0.11156881    -0.38880
N2427       N  0.95823497  0.26003745  0.97734352    -0.38320
N2428       N  0.88265998  0.36718047  0.10522944    -0.38320
C2429       C  0.85920400  0.19581068  0.17660118    -0.04990
C2430       C  0.85069701  0.16759706  0.16318278    -0.02110
C2431       C  0.86419416  0.15778032  0.13504732     0.02880
C2432       C  0.88563814  0.17632881  0.11977609    -0.04990
C2433       C  0.89796765  0.20153326  0.13607750    -0.02090
C2434       C  0.88453616  0.21156944  0.16417344     0.02880
C2435       C  0.82647385  0.14972469  0.17669501     0.37530
C2436       C  0.92237382  0.21897987  0.12232656     0.37520
C2437       C  0.89679154  0.23825920  0.18014167     0.35940
C2438       C  0.85417721  0.12960019  0.12054128     0.35940
N2439       N  0.90662150  0.25943588  0.19296985    -0.38880
N2440       N  0.84576889  0.10678785  0.10995236    -0.38880
N2441       N  0.94183701  0.23290167  0.11135528    -0.38320
N2442       N  0.80718188  0.13538273  0.18741326    -0.38320
C2443       C  0.73597404  0.20867498  0.24924604    -0.04990
C2444       C  0.71915266  0.19968474  0.22224030    -0.02110
C2445       C  0.68803868  0.20737973  0.21928748     0.02880
C2446       C  0.67399705  0.22451613  0.24314648    -0.04990
C2447       C  0.69002514  0.23059077  0.27140282    -0.02090
C2448       C  0.72086303  0.22238727  0.27465209     0.02880
C2449       C  0.73422013  0.18378137  0.19689029     0.37530
C2450       C  0.67569144  0.24748293  0.29639934     0.37520
C2451       C  0.73756909  0.23095113  0.30303961     0.35940
C2452       C  0.67123594  0.19969299  0.19075412     0.35940
N2453       N  0.75059057  0.23791134  0.32576342    -0.38880
N2454       N  0.65782186  0.19357193  0.16800609    -0.38880
N2455       N  0.66548953  0.26219557  0.31616729    -0.38320
N2456       N  0.74609044  0.17117179  0.17652785    -0.38320
C2457       C  0.98639875  0.22539568  0.27252828    -0.04990
C2458       C  0.97314749  0.22935884  0.30242137    -0.02110
C2459       C  0.94176857  0.22390447  0.30643686     0.02880
C2460       C  0.92323866  0.21583872  0.28051261    -0.04990
C2461       C  0.93767386  0.20551041  0.25296342    -0.02090
C2462       C  0.96883545  0.21173089  0.24826660     0.02880
C2463       C  0.99181868  0.23825493  0.32934966     0.37530
C2464       C  0.92178470  0.18546050  0.23124976     0.37520
C2465       C  0.98221109  0.20512833  0.21807416     0.35940
C2466       C  0.92959472  0.22189625  0.33771781     0.35940
N2467       N  0.99277164  0.19994485  0.19391491    -0.38880
N2468       N  0.92059095  0.21924087  0.36291376    -0.38880
N2469       N  0.91007735  0.16793553  0.21471894    -0.38320
N2470       N  0.50667734  0.24536902  0.35082139    -0.38320
C2471       C  0.98838312  0.47409382  0.73662693    -0.04990
C2472       C  0.97356007  0.49515660  0.71607287    -0.02110
C2473       C  0.94179217  0.49391531  0.71060275     0.02880
C2474       C  0.92341275  0.47354036  0.72759747    -0.04350
C2475       C  0.93826896  0.45132115  0.74664577    -0.02090
C2476       C  0.97040068  0.45151504  0.75089403     0.02880
C2477       C  0.99009702  0.01973454  0.70125572     0.37530
C2478       C  0.92090185  0.42776194  0.76202026     0.37520
C2479       C  0.98470918  0.42816887  0.77002714     0.35940
C2480       C  0.92841099  0.01425603  0.68736718     0.35940
N2481       N  0.99597075  0.40948300  0.78531196    -0.38880
N2482       N  0.91801316  0.03051187  0.66881446    -0.38880
N2483       N  0.90725590  0.40887768  0.77430385    -0.38320
N2484       N  0.50254080  0.03960202  0.68924369    -0.38320
C2485       C  0.73851018  0.46090362  0.77370047    -0.04990
C2486       C  0.71995269  0.46961354  0.74811738    -0.02110
C2487       C  0.68822987  0.47207282  0.75156293     0.02880
C2488       C  0.67427086  0.46173023  0.77918116    -0.04990
C2489       C  0.69248534  0.44716072  0.80219217    -0.02090
C2490       C  0.72471985  0.44873342  0.80056310     0.02880
C2491       C  0.73353445  0.47685679  0.71832945     0.37530
C2492       C  0.67817607  0.42984867  0.82670665     0.37520
C2493       C  0.74363721  0.43752644  0.82612647     0.35940
C2494       C  0.67092023  0.48725425  0.72708667     0.35940
N2495       N  0.75881497  0.42868083  0.84655303    -0.38880
N2496       N  0.65933743  0.50028657  0.70668844    -0.38880
N2497       N  0.66674179  0.41591506  0.84620815    -0.38320
N2498       N  0.74433107  0.48163387  0.69432774    -0.38320
C2499       C  0.86796795  0.45425180  0.84037941    -0.04990
C2500       C  0.88924800  0.47294290  0.85727757    -0.02110
C2501       C  0.90618566  0.46126127  0.88314906     0.02880
C2502       C  0.90026624  0.43218732  0.89488387    -0.04990
C2503       C  0.88263802  0.41244738  0.87574305    -0.02090
C2504       C  0.86676486  0.42305354  0.84862545     0.02880
C2505       C  0.89381339  0.00450025  0.84879374     0.37530
C2506       C  0.88045644  0.38121849  0.88538310     0.37520
C2507       C  0.84809739  0.40207633  0.83044151     0.35940
C2508       C  0.93115720  0.47838345  0.89647507     0.35940
N2509       N  0.83322544  0.38555331  0.81555441    -0.38880
N2510       N  0.95228124  0.99152406  0.90556682    -0.38880
N2511       N  0.87987962  0.35663739  0.89462129    -0.38320
N2512       N  0.89731028  0.02983128  0.84261705    -0.38320
C2513       C  0.63866077  0.44889099  0.61217949    -0.04990
C2514       C  0.62702018  0.47766363  0.62073221    -0.02110
C2515       C  0.60727031  0.48075033  0.64595177     0.02880
C2516       C  0.60733087  0.45884024  0.67000989    -0.04990
C2517       C  0.62370822  0.43148110  0.66475309    -0.02090
C2518       C  0.63655005  0.42540343  0.63467600     0.02880
C2519       C  0.63567505  0.00517111  0.60500181     0.37530
C2520       C  0.62899465  0.41087884  0.69047218     0.37520
C2521       C  0.64778709  0.39538649  0.62697595     0.35940
C2522       C  0.58680379  0.00689387  0.64653091     0.35940
N2523       N  0.65671361  0.37137176  0.62064991    -0.38880
N2524       N  0.57056832  0.02768639  0.64660766    -0.38880
N2525       N  0.63403462  0.39527532  0.71164000    -0.38320
N2526       N  0.64144161  0.02894449  0.59537519    -0.38320
C2527       C  0.60891288  0.20894458  0.33857146    -0.04990
C2528       C  0.62228738  0.22987355  0.36058207    -0.02110
C2529       C  0.64092568  0.21950510  0.38538664     0.02880
C2530       C  0.63911319  0.18919629  0.39501131    -0.04990
C2531       C  0.62604062  0.16783513  0.37375113    -0.02090
C2532       C  0.61283814  0.17749345  0.34465172     0.02880
C2533       C  0.61581980  0.26224288  0.36024947     0.37530
C2534       C  0.62734583  0.13587041  0.38129612     0.37520
C2535       C  0.60148027  0.15514124  0.32231991     0.35940
C2536       C  0.66120229  0.24058517  0.40167460     0.35940
N2537       N  0.59261907  0.13721089  0.30441965    -0.38880
N2538       N  0.67791824  0.25756645  0.41361486    -0.38880
N2539       N  0.62873972  0.11017591  0.38676782    -0.38320
N2540       N  0.61108459  0.28809744  0.36190544    -0.38320
C2541       C  0.66638982  0.10293130  0.51760943    -0.04990
C2542       C  0.68377296  0.08621166  0.53965547    -0.02110
C2543       C  0.68034823  0.05420097  0.54133047     0.02880
C2544       C  0.65725190  0.03955764  0.52329899    -0.04990
C2545       C  0.64109695  0.05648256  0.50043678    -0.02090
C2546       C  0.64649754  0.08761370  0.49686052     0.02880
C2547       C  0.70487302  0.10196383  0.56053742     0.37530
C2548       C  0.61763260  0.04309810  0.48079960     0.37520
C2549       C  0.62958245  0.10422645  0.47292995     0.35940
C2550       C  0.70005798  0.03654837  0.56185622     0.35940
N2551       N  0.61554224  0.11672031  0.45382337    -0.38880
N2552       N  0.71576848  0.02238857  0.57822553    -0.38880
N2553       N  0.59767444  0.03593610  0.46443049    -0.38320
N2554       N  0.72165918  0.11463073  0.57724157    -0.38320
C2555       C  0.64979636  0.28783540  0.47745751    -0.04990
C2556       C  0.63027553  0.30623979  0.45876651    -0.02110
C2557       C  0.63363482  0.33813889  0.45863814     0.02880
C2558       C  0.65297174  0.35320135  0.48098806    -0.04990
C2559       C  0.67230838  0.33502851  0.49998321    -0.02090
C2560       C  0.67164669  0.30283783  0.49739555     0.02880
C2561       C  0.60529295  0.29303687  0.44051009     0.37530
C2562       C  0.69384971  0.34926874  0.52169776     0.37520
C2563       C  0.69368549  0.28570594  0.51590904     0.35940
C2564       C  0.61753292  0.35478169  0.43421569     0.35940
N2565       N  0.71167625  0.27249011  0.53057125    -0.38880
N2566       N  0.60533388  0.36758935  0.41401257    -0.38880
N2567       N  0.71103940  0.36050173  0.53907058    -0.38320
N2568       N  0.58481903  0.28278199  0.42664366    -0.38320
C2569       C  0.59365218  0.01620069  0.92525403    -0.04990
C2570       C  0.56849697  0.99614642  0.92140461    -0.02110
C2571       C  0.56349181  0.48089455  0.89197722     0.02880
C2572       C  0.58635521  0.48103271  0.86873211    -0.04990
C2573       C  0.61358320  0.99696746  0.87652783    -0.02090
C2574       C  0.61407799  0.01862476  0.90043333     0.02880
C2575       C  0.54827350  0.49101820  0.94729314     0.37530
C2576       C  0.64270993  0.99056629  0.86282859     0.37520
C2577       C  0.63637971  0.04315430  0.89938002     0.35940
C2578       C  0.53517273  0.46502186  0.88564962     0.35940
N2579       N  0.65398635  0.06270881  0.89854060    -0.38880
N2580       N  0.51253040  0.45229326  0.88054070    -0.38880
N2581       N  0.66769093  0.98818788  0.85480775    -0.38320
N2582       N  0.53244187  0.48659239  0.96822997    -0.38320
C2583       C  0.77940092  0.13686996  0.02411574    -0.04990
C2584       C  0.76815243  0.11907468  0.99857156    -0.02110
C2585       C  0.73846033  0.10664875  0.99896902     0.02880
C2586       C  0.72052151  0.10812690  0.02633437    -0.04990
C2587       C  0.73264956  0.12343613  0.05294147    -0.02090
C2588       C  0.76135954  0.13855020  0.05157581     0.02880
C2589       C  0.78662505  0.11357731  0.97106986     0.37530
C2590       C  0.71499688  0.12468126  0.08136713     0.37520
C2591       C  0.77248930  0.15513997  0.07890362     0.35940
C2592       C  0.72669229  0.09265969  0.97035151     0.35940
N2593       N  0.78130711  0.16841504  0.10073188    -0.38880
N2594       N  0.71830197  0.08231217  0.94674429    -0.38880
N2595       N  0.70093068  0.12567511  0.10408966    -0.38320
N2596       N  0.80119173  0.10887702  0.94914690    -0.38320
C2597       C  0.72773004  0.00989575  0.00480891    -0.04990
C2598       C  0.74207939  0.50209603  0.97676289    -0.02110
C2599       C  0.77219410  0.49138398  0.97770485     0.02880
C2600       C  0.78831906  0.48941299  0.00690235    -0.04990
C2601       C  0.77468821  0.99987597  0.03437925    -0.02090
C2602       C  0.74433560  0.00947242  0.03363667     0.02880
C2603       C  0.72559265  0.50408531  0.94700205     0.37530
C2604       C  0.79198457  0.00289601  0.06338062     0.37520
C2605       C  0.73127447  0.01969799  0.06300700     0.35940
C2606       C  0.78553720  0.48174798  0.94831988     0.35940
N2607       N  0.72251852  0.02749343  0.08724493    -0.38880
N2608       N  0.79507445  0.47449397  0.92423578    -0.38880
N2609       N  0.80404093  0.00719638  0.08724922    -0.38320
N2610       N  0.71256675  0.50574444  0.92326989    -0.38320
C2611       C  0.61188542  0.45377597  0.02915754    -0.04990
C2612       C  0.63452489  0.44093549  0.00991753    -0.02110
C2613       C  0.63597724  0.40922846  0.00496697     0.02880
C2614       C  0.61344677  0.38985950  0.01687373    -0.04990
C2615       C  0.58727717  0.40333050  0.03015583    -0.02090
C2616       C  0.58618258  0.43537522  0.03523731     0.02880
C2617       C  0.65149445  0.46002382  0.98897894     0.37530
C2618       C  0.56130445  0.38457283  0.03758766     0.37520
C2619       C  0.55749430  0.45013876  0.04162419     0.35940
C2620       C  0.65896367  0.39706241  0.98440979     0.35940
N2621       N  0.53492377  0.46326097  0.04520911    -0.38880
N2622       N  0.67736622  0.38851441  0.96740089    -0.38880
N2623       N  0.54052947  0.36955177  0.04345906    -0.38320
N2624       N  0.66406897  0.47332954  0.96982295    -0.38320
C2625       C  0.60993782  0.20133331  0.98203159    -0.04990
C2626       C  0.59512336  0.18334829  0.95893268    -0.02110
C2627       C  0.58899363  0.15227135  0.96476176     0.02880
C2628       C  0.59790738  0.13894098  0.99360996    -0.04990
C2629       C  0.61144150  0.15738606  0.01706738    -0.02090
C2630       C  0.61690443  0.18844114  0.01156819     0.02880
C2631       C  0.58808649  0.19615294  0.92849170     0.37530
C2632       C  0.62333693  0.14364332  0.04546738     0.37520
C2633       C  0.63037323  0.20682163  0.03650683     0.35940
C2634       C  0.57480027  0.13355765  0.94053250     0.35940
N2635       N  0.64087487  0.22056832  0.05719112    -0.38880
N2636       N  0.56352952  0.11853668  0.92123404    -0.38880
N2637       N  0.63357969  0.13244383  0.06766104    -0.38320
N2638       N  0.58261035  0.20606387  0.90399664    -0.38320
C2639       C  0.57642347  0.25952193  0.14571867    -0.04990
C2640       C  0.58740587  0.28885961  0.13624104    -0.02110
C2641       C  0.58546983  0.29810767  0.10500970     0.02880
C2642       C  0.58208006  0.27629829  0.08132181    -0.04990
C2643       C  0.57018799  0.24744388  0.08928090    -0.02090
C2644       C  0.56610637  0.23953976  0.12153146     0.02880
C2645       C  0.60622485  0.30856904  0.15595512     0.37530
C2646       C  0.56231992  0.22610524  0.06455774     0.37520
C2647       C  0.55482439  0.20976068  0.12959552     0.35940
C2648       C  0.59258547  0.32948109  0.09686884     0.35940
N2649       N  0.54587850  0.18590236  0.13605018    -0.38880
N2650       N  0.59887108  0.35432116  0.09102790    -0.38880
N2651       N  0.55544992  0.20912171  0.04486256    -0.38320
N2652       N  0.62220303  0.32533949  0.16930034    -0.38320
C2653       C  0.72746637  0.24194167  0.03684705    -0.04990
C2654       C  0.75170337  0.26222182  0.04256227    -0.02110
C2655       C  0.77839947  0.26014412  0.02462018     0.02880
C2656       C  0.78243182  0.23558703  0.00317612    -0.04990
C2657       C  0.75851641  0.21421205  0.99936067    -0.02090
C2658       C  0.73305117  0.21542955  0.01906729     0.02880
C2659       C  0.74714502  0.28786105  0.06357205     0.37530
C2660       C  0.75844266  0.19276631  0.97339425     0.37520
C2661       C  0.70918831  0.19276167  0.01588787     0.35940
C2662       C  0.80076310  0.28444381  0.02686170     0.35940
N2663       N  0.69039449  0.17448107  0.01297786    -0.38880
N2664       N  0.81850606  0.30388152  0.02848240    -0.38880
N2665       N  0.75789921  0.17624720  0.95216557    -0.38320
N2666       N  0.74349914  0.30836061  0.08025924    -0.38320
C2667       C  0.78790479  0.38257784  0.98491844    -0.04990
C2668       C  0.78283476  0.35941768  0.96233047    -0.02110
C2669       C  0.75575016  0.34159866  0.96249809     0.02880
C2670       C  0.73292831  0.34705289  0.98509525    -0.04990
C2671       C  0.73801512  0.37084160  0.00740694    -0.02090
C2672       C  0.76525732  0.38791768  0.00752803     0.02880
C2673       C  0.80620087  0.35242530  0.93996379     0.37530
C2674       C  0.71547931  0.37815473  0.03100203     0.37520
C2675       C  0.76996534  0.41041731  0.03218265     0.35940
C2676       C  0.75256012  0.31637776  0.94060958     0.35940
N2677       N  0.77238638  0.42756620  0.05275453    -0.38880
N2678       N  0.75019737  0.29617381  0.92321702    -0.38880
N2679       N  0.69794514  0.38427134  0.05007189    -0.38320
N2680       N  0.82434821  0.34582149  0.92180047    -0.38320
C2681       C  0.94594041  0.24167911  0.87480337    -0.04990
C2682       C  0.92321225  0.25790042  0.89055517    -0.02110
C2683       C  0.91062308  0.24610622  0.91811265     0.02880
C2684       C  0.92316422  0.21938309  0.93159307    -0.04990
C2685       C  0.95148925  0.20860411  0.92026887    -0.02090
C2686       C  0.96199490  0.21872151  0.89104109     0.02880
C2687       C  0.91249360  0.28594096  0.87712176     0.37530
C2688       C  0.97026097  0.18799995  0.93857599     0.37520
C2689       C  0.98846242  0.20472995  0.87686050     0.35940
C2690       C  0.88531072  0.26175096  0.93272511     0.35940
N2691       N  0.00952800  0.19356001  0.86544680    -0.38880
N2692       N  0.86516508  0.27421345  0.94449454    -0.38880
N2693       N  0.98608510  0.17261009  0.95356979    -0.38320
N2694       N  0.90623182  0.30838530  0.86476074    -0.38320
C2695       C  0.99228916  0.14207166  0.77521243    -0.04990
C2696       C  0.99208051  0.12180434  0.80109437    -0.02110
C2697       C  0.51185731  0.09598778  0.80204205     0.02880
C2698       C  0.53198211  0.08987958  0.77721272    -0.04990
C2699       C  0.53238236  0.11003705  0.75161445    -0.02090
C2700       C  0.51308899  0.13575288  0.75056514     0.02880
C2701       C  0.97171090  0.12733958  0.82695857     0.37530
C2702       C  0.55218220  0.10408465  0.72526767     0.37520
C2703       C  0.51441236  0.15484116  0.72289651     0.35940
C2704       C  0.01076919  0.07503427  0.82805755     0.35940
N2705       N  0.51571815  0.16980651  0.70074349    -0.38880
N2706       N  0.00992116  0.05822431  0.84877466    -0.38880
N2707       N  0.56718706  0.10016644  0.70353355    -0.38320
N2708       N  0.95541360  0.13169242  0.84761513    -0.38320
C2709       C  0.87840410  0.08850164  0.77769768    -0.04990
C2710       C  0.90540501  0.09273068  0.76053818    -0.02110
C2711       C  0.90938451  0.11918092  0.74274826     0.02880
C2712       C  0.88829083  0.14341222  0.74513456    -0.04990
C2713       C  0.86142060  0.13902742  0.76263865    -0.02090
C2714       C  0.85809597  0.11304837  0.78107986     0.02880
C2715       C  0.92920232  0.06971556  0.76142714     0.37530
C2716       C  0.83676909  0.16109105  0.76178494     0.37520
C2717       C  0.83440910  0.11224774  0.80442742     0.35940
C2718       C  0.93446973  0.12061530  0.72106620     0.35940
N2719       N  0.81608624  0.11211113  0.82365824    -0.38880
N2720       N  0.95410274  0.12123122  0.70325992    -0.38880
N2721       N  0.81637800  0.17782276  0.76151304    -0.38320
N2722       N  0.94830896  0.05154294  0.76250126    -0.38320
C2723       C  0.69657854  0.26111587  0.64060626    -0.04990
C2724       C  0.66894516  0.26991098  0.62595909    -0.02110
C2725       C  0.65985988  0.25632907  0.59723251     0.02880
C2726       C  0.67795248  0.23308326  0.58351213    -0.04990
C2727       C  0.70799065  0.22876984  0.59515473    -0.02090
C2728       C  0.71754406  0.24379593  0.62299624     0.02880
C2729       C  0.64854991  0.29083891  0.64162464     0.37530
C2730       C  0.72853932  0.20767569  0.57988727     0.37520
C2731       C  0.74891159  0.24122418  0.63374143     0.35940
C2732       C  0.63146160  0.26589275  0.58233221     0.35940
N2733       N  0.77440713  0.23959592  0.64097914    -0.38880
N2734       N  0.60882537  0.27367045  0.57057208    -0.38880
N2735       N  0.74499303  0.19084194  0.56776195    -0.38320
N2736       N  0.63212309  0.30756101  0.65390391    -0.38320
C2737       C  0.59206120  0.26168650  0.72619010    -0.04990
C2738       C  0.57652993  0.23508129  0.73541481    -0.02110
C2739       C  0.54867559  0.23706887  0.75113025     0.02880
C2740       C  0.53097128  0.26353861  0.74960399    -0.04990
C2741       C  0.54443964  0.29000991  0.73742554    -0.02090
C2742       C  0.57554467  0.28952166  0.72785824     0.02880
C2743       C  0.58592049  0.20512704  0.72578684     0.37530
C2744       C  0.52645936  0.31757685  0.73503597     0.37520
C2745       C  0.58967804  0.31724910  0.71760401     0.35940
C2746       C  0.54025013  0.21299966  0.77225714     0.35940
N2747       N  0.60068667  0.33953359  0.70917332    -0.38880
N2748       N  0.53519875  0.19462256  0.79071586    -0.38880
N2749       N  0.51199140  0.33953764  0.73302630    -0.38320
N2750       N  0.59029174  0.18036799  0.71778386    -0.38320
C2751       C  0.77975509  0.27315891  0.76692488    -0.04990
C2752       C  0.79721165  0.25254582  0.74936021    -0.02110
C2753       C  0.82882821  0.24941399  0.75527823     0.02880
C2754       C  0.84281333  0.26409333  0.78147870    -0.04990
C2755       C  0.82590604  0.28715499  0.79675661    -0.02090
C2756       C  0.79496384  0.29266088  0.78819769     0.02880
C2757       C  0.78280104  0.23501251  0.72445090     0.37530
C2758       C  0.84000917  0.30613049  0.82049815     0.37520
C2759       C  0.78031259  0.32074854  0.79744601     0.35940
C2760       C  0.84690966  0.23412704  0.73180243     0.35940
N2761       N  0.76966235  0.34412732  0.80348074    -0.38880
N2762       N  0.85974303  0.22271052  0.71134023    -0.38880
N2763       N  0.84968823  0.32227539  0.83963459    -0.38320
N2764       N  0.77156002  0.22079549  0.70457210    -0.38320
C2765       C  0.65490826  0.28687490  0.83283164    -0.04990
C2766       C  0.67096599  0.30794315  0.85171907    -0.02110
C2767       C  0.65791946  0.31962879  0.87926130     0.02880
C2768       C  0.63023735  0.30767863  0.89039265    -0.04990
C2769       C  0.61274913  0.28891294  0.87017250    -0.02090
C2770       C  0.62518199  0.27817851  0.84166334     0.02880
C2771       C  0.70304424  0.31310875  0.84649264     0.37530
C2772       C  0.58306926  0.27866503  0.88019061     0.37520
C2773       C  0.60862600  0.25598689  0.82299140     0.35940
C2774       C  0.67537793  0.34097619  0.89823470     0.35940
N2775       N  0.59588281  0.23763795  0.80840249    -0.38880
N2776       N  0.69053360  0.35805722  0.91201910    -0.38880
N2777       N  0.55926010  0.27081439  0.88822940    -0.38320
N2778       N  0.72902628  0.31633437  0.84402404    -0.38320
C2779       C  0.74465501  0.15003603  0.74132684    -0.04990
C2780       C  0.74557450  0.13353832  0.76980049    -0.02110
C2781       C  0.75771785  0.10372810  0.77100395     0.02880
C2782       C  0.77305581  0.09116711  0.74495117    -0.04990
C2783       C  0.77277895  0.10798773  0.71654403    -0.02090
C2784       C  0.75730686  0.13639003  0.71440187     0.02880
C2785       C  0.73439147  0.14707117  0.79851987     0.37530
C2786       C  0.78827981  0.09626243  0.68921539     0.37520
C2787       C  0.75509784  0.15187282  0.68455580     0.35940
C2788       C  0.75478655  0.08647182  0.79969482     0.35940
N2789       N  0.75317297  0.16404980  0.66064315    -0.38880
N2790       N  0.75216838  0.07282299  0.82259274    -0.38880
N2791       N  0.80095613  0.08740828  0.66736639    -0.38320
N2792       N  0.72633192  0.15746444  0.82197448    -0.38320
C2793       C  0.64111626  0.08279744  0.75005866    -0.04990
C2794       C  0.64123399  0.10078379  0.72335735    -0.02110
C2795       C  0.64570985  0.13217453  0.72636167     0.02880
C2796       C  0.64992749  0.14578798  0.75683701    -0.04990
C2797       C  0.65216902  0.12688440  0.78324326    -0.02090
C2798       C  0.65012453  0.09533381  0.77948490     0.02880
C2799       C  0.63734694  0.08653622  0.69262741     0.37530
C2800       C  0.65486420  0.13975468  0.81463291     0.37520
C2801       C  0.65773341  0.07619846  0.80605398     0.35940
C2802       C  0.64542838  0.14911321  0.69732824     0.35940
N2803       N  0.66449267  0.06113081  0.82717763    -0.38880
N2804       N  0.64442380  0.16086678  0.67312465    -0.38880
N2805       N  0.65671837  0.14990784  0.83968904    -0.38320
N2806       N  0.63430208  0.07515135  0.66824204    -0.38320
C2807       C  0.84224409  0.01192695  0.59128028    -0.04990
C2808       C  0.85617290  0.98615293  0.60554908    -0.02110
C2809       C  0.84532076  0.97472205  0.63420616     0.02880
C2810       C  0.82022689  0.48871858  0.64891627    -0.04990
C2811       C  0.80321873  0.01077341  0.63172612    -0.02090
C2812       C  0.81433039  0.02253586  0.60324839     0.02880
C2813       C  0.88200157  0.97133479  0.59089113     0.37530
C2814       C  0.77520927  0.52309090  0.64429893     0.37520
C2815       C  0.79797705  0.04689882  0.58754476     0.35940
C2816       C  0.86196475  0.95047215  0.64983043     0.35940
N2817       N  0.78484668  0.06628708  0.57500824    -0.38880
N2818       N  0.87538851  0.93119861  0.66223729    -0.38880
N2819       N  0.75283337  0.53352184  0.65367238    -0.38320
N2820       N  0.90246301  0.95930875  0.57923201    -0.38320
C2821       C  0.98839963  0.09375197  0.50534359    -0.04990
C2822       C  0.50469175  0.10295735  0.53258598    -0.02110
C2823       C  0.53284364  0.11834055  0.53035534     0.02880
C2824       C  0.54313112  0.12907821  0.50102790    -0.04990
C2825       C  0.52598429  0.12121468  0.47372104    -0.02090
C2826       C  0.99943753  0.10271216  0.47579117     0.02880
C2827       C  0.49202882  0.09762264  0.56328294     0.37530
C2828       C  0.53614258  0.13135216  0.44336999     0.37520
C2829       C  0.98261173  0.09420773  0.44758044     0.35940
C2830       C  0.55096781  0.12293354  0.55875907     0.35940
N2831       N  0.96917826  0.08752593  0.42501274    -0.38880
N2832       N  0.56528500  0.12613860  0.58156244    -0.38880
N2833       N  0.54431492  0.13951342  0.41917421    -0.38320
N2834       N  0.48157758  0.09430060  0.58776546    -0.38320
C2835       C  0.98056787  0.98801872  0.53660933    -0.04990
C2836       C  0.50558138  0.00642767  0.54424181    -0.02110
C2837       C  0.52973716  0.00890751  0.52323385     0.02880
C2838       C  0.53214630  0.48820954  0.49740652    -0.04990
C2839       C  0.50789908  0.46794227  0.49140203    -0.02090
C2840       C  0.98387841  0.46571996  0.51271953     0.02880
C2841       C  0.50673002  0.02192719  0.57432174     0.37530
C2842       C  0.50544629  0.45245336  0.46145284     0.37520
C2843       C  0.96127340  0.44182000  0.50873260     0.35940
C2844       C  0.55169581  0.03316808  0.52852185     0.35940
N2845       N  0.94324374  0.42279720  0.50557485    -0.38880
N2846       N  0.56896418  0.05259492  0.53327290    -0.38880
N2847       N  0.50231371  0.44141398  0.43692430    -0.38320
N2848       N  0.50803368  0.03343997  0.59876981    -0.38320
C2849       C  0.90110910  0.29557259  0.61860812    -0.04990
C2850       C  0.93161115  0.28768286  0.62867598    -0.02110
C2851       C  0.93928352  0.28588616  0.66042010     0.02880
C2852       C  0.91640349  0.28613644  0.68265921    -0.04990
C2853       C  0.88642731  0.29480480  0.67389093    -0.02090
C2854       C  0.87882553  0.29999994  0.64185399     0.02880
C2855       C  0.95563638  0.27787709  0.60770728     0.37530
C2856       C  0.86416563  0.30043623  0.69791337     0.37520
C2857       C  0.84821314  0.30937147  0.63299387     0.35940
C2858       C  0.97111256  0.28181260  0.67000742     0.35940
N2859       N  0.82373349  0.31684025  0.62594178    -0.38880
N2860       N  0.99670478  0.27886743  0.67634585    -0.38880
N2861       N  0.84634589  0.30608488  0.71682210    -0.38320
N2862       N  0.97607500  0.26946424  0.59306078    -0.38320
C2863       C  0.85842757  0.38434819  0.49079726    -0.04990
C2864       C  0.86430632  0.39806669  0.46143140    -0.02110
C2865       C  0.86894800  0.42968369  0.45932858     0.02880
C2866       C  0.86163723  0.44872641  0.48476028    -0.04990
C2867       C  0.84722149  0.43542069  0.51089626    -0.02090
C2868       C  0.84795767  0.40350769  0.51514097     0.02880
C2869       C  0.86061855  0.38103487  0.43252380     0.37530
C2870       C  0.82926857  0.45379805  0.53196572     0.37520
C2871       C  0.83715103  0.39082363  0.54420908     0.35940
C2872       C  0.87922798  0.44261276  0.43012759     0.35940
N2873       N  0.82847524  0.38083065  0.56745676    -0.38880
N2874       N  0.88740784  0.45268729  0.40673650    -0.38880
N2875       N  0.81321958  0.46762225  0.54794578    -0.38320
N2876       N  0.85582966  0.36923049  0.40866590    -0.38320
C2877       C  0.87166149  0.19954015  0.53359623    -0.04990
C2878       C  0.86192444  0.18179771  0.55887586    -0.02110
C2879       C  0.85874239  0.14994539  0.55523865     0.02880
C2880       C  0.86584279  0.13555473  0.52635203    -0.04990
C2881       C  0.87410658  0.15362729  0.50064857    -0.02090
C2882       C  0.87686510  0.18539591  0.50421837     0.02880
C2883       C  0.85518579  0.19637569  0.58857589     0.37530
C2884       C  0.88208388  0.13947239  0.47096891     0.37520
C2885       C  0.88722714  0.20284829  0.47774825     0.35940
C2886       C  0.84796967  0.13201401  0.58123817     0.35940
N2887       N  0.89609406  0.21507361  0.45578629    -0.38880
N2888       N  0.83932632  0.11769202  0.60194432    -0.38880
N2889       N  0.88855458  0.12824056  0.44736508    -0.38320
N2890       N  0.84980156  0.20809693  0.61223050    -0.38320
C2891       C  0.84719936  0.26818925  0.42576719    -0.04990
C2892       C  0.82699812  0.24334219  0.42196189    -0.02110
C2893       C  0.82186480  0.23020201  0.39163817     0.02880
C2894       C  0.83889774  0.24010789  0.36563965    -0.04990
C2895       C  0.86020943  0.26432679  0.37083189    -0.02090
C2896       C  0.86209767  0.27960294  0.39945663     0.02880
C2897       C  0.81206423  0.23113311  0.44913782     0.37530
C2898       C  0.88233760  0.27454808  0.34833864     0.37520
C2899       C  0.88268581  0.30575530  0.40202840     0.35940
C2900       C  0.79892778  0.20688714  0.38713144     0.35940
N2901       N  0.90059793  0.32507766  0.40229923    -0.38880
N2902       N  0.78050755  0.18832024  0.38349848    -0.38880
N2903       N  0.90136808  0.28551372  0.33359287    -0.38320
N2904       N  0.80021653  0.22143906  0.47095974    -0.38320
C2905       C  0.53952956  0.23711435  0.52670006    -0.04990
C2906       C  0.51540439  0.21642171  0.52934788    -0.02110
C2907       C  0.98997067  0.21850101  0.50907243     0.02880
C2908       C  0.98581150  0.24450404  0.48992765    -0.04990
C2909       C  0.50989653  0.26546709  0.48780691    -0.02090
C2910       C  0.53491042  0.26361212  0.50860861     0.02880
C2911       C  0.51557940  0.19465516  0.55462132     0.37530
C2912       C  0.51042549  0.28709994  0.46243358     0.37520
C2913       C  0.55689618  0.28825899  0.51030792     0.35940
C2914       C  0.96793237  0.19389012  0.50821425     0.35940
N2915       N  0.57416112  0.30811421  0.51187942    -0.38880
N2916       N  0.95084776  0.17385778  0.50761496    -0.38880
N2917       N  0.51179114  0.30343711  0.44138119    -0.38320
N2918       N  0.51476809  0.17820417  0.57562062    -0.38320
C2919       C  0.98498137  0.35155573  0.51552233    -0.04990
C2920       C  0.50076820  0.35921920  0.54367566    -0.02110
C2921       C  0.52695259  0.37814219  0.54300383     0.02880
C2922       C  0.53864017  0.38777727  0.51406485    -0.04990
C2923       C  0.52344311  0.37887032  0.48596708    -0.02090
C2924       C  0.99558169  0.36326474  0.48690998     0.02880
C2925       C  0.98903407  0.34950577  0.57349286     0.37530
C2926       C  0.53610536  0.38553423  0.45555223     0.37520
C2927       C  0.97782282  0.35984809  0.45802753     0.35940
C2928       C  0.54260321  0.38662457  0.57193821     0.35940
N2929       N  0.96378535  0.35763164  0.43492505    -0.38880
N2930       N  0.55519554  0.39338821  0.59498221    -0.38880
N2931       N  0.54555061  0.39046341  0.43093270    -0.38320
N2932       N  0.97983881  0.34242984  0.59763396    -0.38320
C2933       C  0.69489782  0.50391778  0.36284606    -0.04990
C2934       C  0.66672646  0.51431559  0.37402757    -0.02110
C2935       C  0.65372083  0.50060175  0.40048746     0.02880
C2936       C  0.67102753  0.47993883  0.41944043    -0.04990
C2937       C  0.70202827  0.47476329  0.41135061    -0.02090
C2938       C  0.71343633  0.48597906  0.38274799     0.02880
C2939       C  0.64936985  0.53655621  0.35608735     0.37530
C2940       C  0.72176719  0.45588275  0.43066668     0.37520
C2941       C  0.74366000  0.47738128  0.37244031     0.35940
C2942       C  0.62137435  0.50549694  0.40508498     0.35940
N2943       N  0.76774293  0.47052764  0.36412299    -0.38880
N2944       N  0.59523201  0.50875276  0.40678268    -0.38880
N2945       N  0.73768362  0.44086625  0.44597778    -0.38320
N2946       N  0.63550372  0.05436713  0.34196987    -0.38320
C2947       C  0.61250442  0.04858439  0.12140019    -0.04990
C2948       C  0.60794681  0.01852916  0.13153070    -0.02110
C2949       C  0.62409313  0.00703845  0.15789137     0.02880
C2950       C  0.64687096  0.02494675  0.17343150    -0.04990
C2951       C  0.64885843  0.05610534  0.16527467    -0.02090
C2952       C  0.63011392  0.06802741  0.14099995     0.02880
C2953       C  0.58837671  0.49833630  0.11366224     0.37530
C2954       C  0.67062819  0.07615066  0.18089401     0.37520
C2955       C  0.62918188  0.10053613  0.13596397     0.35940
C2956       C  0.61723376  0.47642256  0.16826584     0.35940
N2957       N  0.62820626  0.12669908  0.13348874    -0.38880
N2958       N  0.61161579  0.45201032  0.17632676    -0.38880
N2959       N  0.68795332  0.09227767  0.19320741    -0.38320
N2960       N  0.57295438  0.48135612  0.10013439    -0.38320
C2961       C  0.73495704  0.38778078  0.26911383    -0.04990
C2962       C  0.74664150  0.37517728  0.24085601    -0.02110
C2963       C  0.76106007  0.34649223  0.24059149     0.02880
C2964       C  0.76562261  0.33008527  0.26861599    -0.04990
C2965       C  0.75471096  0.34259573  0.29696622    -0.02090
C2966       C  0.73883948  0.37090719  0.29713943     0.02880
C2967       C  0.74417716  0.39139652  0.21132035     0.37530
C2968       C  0.75910729  0.32585274  0.32581852     0.37520
C2969       C  0.72724949  0.38292279  0.32635006     0.35940
C2970       C  0.77199757  0.33445260  0.21099429     0.35940
N2971       N  0.71792106  0.39251696  0.34965467    -0.38880
N2972       N  0.78029951  0.32545161  0.18703019    -0.38880
N2973       N  0.76263641  0.31238222  0.34879869    -0.38320
N2974       N  0.74276204  0.40397494  0.18759677    -0.38320
C2975       C  0.63499738  0.34109984  0.29438396    -0.04990
C2976       C  0.65975902  0.34559686  0.27416506    -0.02110
C2977       C  0.65748418  0.36889074  0.25181276     0.02880
C2978       C  0.63703260  0.39321702  0.25651462    -0.04990
C2979       C  0.61585541  0.39116627  0.28141750    -0.02090
C2980       C  0.61691188  0.36625128  0.30201358     0.02880
C2981       C  0.68165076  0.32134906  0.26954531     0.37530
C2982       C  0.59117512  0.41299130  0.28408782     0.37520
C2983       C  0.59488000  0.36334839  0.32681629     0.35940
C2984       C  0.67258324  0.36539512  0.22201213     0.35940
N2985       N  0.57718929  0.36083735  0.34648285    -0.38880
N2986       N  0.68355125  0.36189139  0.19775453    -0.38880
N2987       N  0.57103343  0.42992726  0.28584782    -0.38320
N2988       N  0.69952355  0.30258480  0.26471563    -0.38320
C2989       C  0.94245681  0.51400006  0.13857336    -0.04990
C2990       C  0.91169805  0.51491014  0.12880170    -0.02110
C2991       C  0.90016845  0.49236296  0.10806348     0.02880
C2992       C  0.92000847  0.47469640  0.08916801    -0.04990
C2993       C  0.95170151  0.47658234  0.09615496    -0.02090
C2994       C  0.96273507  0.49659926  0.12010446     0.02880
C2995       C  0.89118688  0.03698628  0.14249006     0.37530
C2996       C  0.97192240  0.45360549  0.08372217     0.37520
C2997       C  0.99484183  0.49739524  0.12844338     0.35940
C2998       C  0.86934879  0.48197198  0.11288456     0.35940
N2999       N  0.52020843  0.49872833  0.13613738    -0.38880
N3000       N  0.84562834  0.47185791  0.11801274    -0.38880
N3001       N  0.98701524  0.43389836  0.07468719    -0.38320
N3002       N  0.87479591  0.05484284  0.15305927    -0.38320
C3003       C  0.84253746  0.01425739  0.21387022    -0.04990
C3004       C  0.82586087  0.04048356  0.22331228    -0.02110
C3005       C  0.79405690  0.03846613  0.22999830     0.02880
C3006       C  0.77955055  0.00972336  0.23092591    -0.04990
C3007       C  0.79730454  0.48387560  0.22378432    -0.02090
C3008       C  0.82632451  0.48671686  0.21074647     0.02880
C3009       C  0.84108835  0.06966709  0.22485591     0.37530
C3010       C  0.79010353  0.45468197  0.23694472     0.37520
C3011       C  0.83869181  0.46060082  0.19444638     0.35940
C3012       C  0.77659393  0.06573068  0.23636543     0.35940
N3013       N  0.84702530  0.43940220  0.18081578    -0.38880
N3014       N  0.76261069  0.08753394  0.24136247    -0.38880
N3015       N  0.78792546  0.43131777  0.24891751    -0.38320
N3016       N  0.85347225  0.09287603  0.22607728    -0.38320
C3017       C  0.59255351  0.01777556  0.28226237    -0.04990
C3018       C  0.57279165  0.50490301  0.30463056    -0.02110
C3019       C  0.54073652  0.50911289  0.30235679     0.02880
C3020       C  0.52677556  0.02166245  0.27501143    -0.04990
C3021       C  0.54639568  0.03577909  0.25332109    -0.02090
C3022       C  0.57865637  0.03556337  0.25812105     0.02880
C3023       C  0.58476642  0.48602617  0.32972276     0.37530
C3024       C  0.53385450  0.05038092  0.22557788     0.37520
C3025       C  0.59705722  0.05453011  0.23830084     0.35940
C3026       C  0.52270217  0.50181815  0.32946748     0.35940
N3027       N  0.61119830  0.07064758  0.22294367    -0.38880
N3028       N  0.50932664  0.49661166  0.35194573    -0.38880
N3029       N  0.52406741  0.06194403  0.20329276    -0.38320
N3030       N  0.59391933  0.46991778  0.34903754    -0.38320
C3031       C  0.90817269  0.02287130  0.33749353    -0.04990
C3032       C  0.88612271  0.04516108  0.34566337    -0.02110
C3033       C  0.87955663  0.05147517  0.37794781     0.02880
C3034       C  0.89738193  0.03812381  0.40225378    -0.04990
C3035       C  0.92097714  0.01761028  0.39302115    -0.02090
C3036       C  0.92329974  0.00740345  0.36195964     0.02880
C3037       C  0.86920319  0.06039838  0.32098974     0.37530
C3038       C  0.94525669  0.50788305  0.41408731     0.37520
C3039       C  0.94115679  0.48009986  0.35592736     0.35940
C3040       C  0.85581577  0.07290744  0.38600929     0.35940
N3041       N  0.95469442  0.45775847  0.35226268    -0.38880
N3042       N  0.83682582  0.09004856  0.39249951    -0.38880
N3043       N  0.96607623  0.50033125  0.42909845    -0.38320
N3044       N  0.85559999  0.07257020  0.30128590    -0.38320
C3045       C  0.99317688  0.40105618  0.22879179    -0.04990
C3046       C  0.98835953  0.37932862  0.25239276    -0.02110
C3047       C  0.50254642  0.35065831  0.25089481     0.02880
C3048       C  0.52554758  0.34455325  0.22851817    -0.04990
C3049       C  0.52874617  0.36561647  0.20369512    -0.02090
C3050       C  0.51203885  0.39335749  0.20353571     0.02880
C3051       C  0.96893123  0.38603260  0.27884696     0.37530
C3052       C  0.54812739  0.35933768  0.17753701     0.37520
C3053       C  0.51502253  0.41447657  0.17781158     0.35940
C3054       C  0.99230204  0.32723731  0.27221057     0.35940
N3055       N  0.51740656  0.43110017  0.15710675    -0.38880
N3056       N  0.98350846  0.30907258  0.28935054    -0.38880
N3057       N  0.56221940  0.35656890  0.15507280    -0.38320
N3058       N  0.95413591  0.39035170  0.30067871    -0.38320
C3059       C  0.86372933  0.33840565  0.24023405    -0.04990
C3060       C  0.86434214  0.35525236  0.26913227    -0.02110
C3061       C  0.87518804  0.38518538  0.27009076     0.02880
C3062       C  0.88707023  0.39801886  0.24311963    -0.04990
C3063       C  0.88676893  0.38141867  0.21438767    -0.02090
C3064       C  0.87402709  0.35218703  0.21289764     0.02880
C3065       C  0.85408097  0.34328676  0.29866260     0.37530
C3066       C  0.90133496  0.39305944  0.18659754     0.37520
C3067       C  0.87301566  0.33558719  0.18348895     0.35940
C3068       C  0.87416155  0.40296499  0.29902924     0.35940
N3069       N  0.87203683  0.32229897  0.16005685    -0.38880
N3070       N  0.87339988  0.41709696  0.32199344    -0.38880
N3071       N  0.91287122  0.40158859  0.16407772    -0.38320
N3072       N  0.84638836  0.33623878  0.32342519    -0.38320
O3073       O  0.97810638  0.99856315  0.28529202    -0.81450
C3074       C  0.87699494  0.51348560  0.21418063     0.97900
O3075       O  0.89145941  0.52837112  0.23512461    -0.70570
O3076       O  0.92792562  0.53367405  0.28549698    -0.74160
Al3077     Al  0.93468835  0.52894957  0.23972870     1.48980
C3078       C  0.91640223  0.51459123  0.30433133     0.93160
O3079       O  0.92095815  0.93423138  0.26630619    -0.80380
O3080       O  0.95550780  0.93591012  0.20982087    -0.73940
Al3081     Al  0.94754140  0.96861423  0.27315145     1.90120
O3082       O  0.89614307  0.94607005  0.22339565    -0.73010
O3083       O  0.95647204  0.98903957  0.18417421    -0.72860
O3084       O  0.89161415  0.99609774  0.19546059    -0.78520
O3085       O  0.93864107  0.53387994  0.19276355    -0.76720
O3086       O  0.93589507  0.98831465  0.23959620    -1.12850
O3087       O  0.97873914  0.53030546  0.24561694    -0.72050
C3088       C  0.99271552  0.51717051  0.26835601     0.98670
C3089       C  0.90147198  0.92800118  0.24504286     0.95070
Al3090     Al  0.92598363  0.96859755  0.20529794     1.55560
O3091       O  0.91592925  0.98685823  0.29677056    -0.76670
C3092       C  0.94841752  0.51401023  0.17338341     0.99230
C3093       C  0.97618278  0.93035265  0.23000379     0.94110
O3094       O  0.97980823  0.94752702  0.25349925    -0.81990
O3095       O  0.72581777  0.93730041  0.24830062    -0.81450
C3096       C  0.62675101  0.51078989  0.28263887     0.97900
O3097       O  0.63772084  0.98987961  0.29985662    -0.70570
O3098       O  0.63796935  0.94604745  0.26099823    -0.74160
Al3099     Al  0.66804350  0.95925782  0.28926262     1.48980
C3100       C  0.64557466  0.92384850  0.24471878     0.93160
O3101       O  0.66965967  0.98263872  0.20008845    -0.80380
O3102       O  0.73229705  0.51845963  0.25916998    -0.73940
Al3103     Al  0.69754582  0.96084847  0.22537674     1.90120
O3104       O  0.68191523  0.52769066  0.21814787    -0.73010
O3105       O  0.69272006  0.52079724  0.30881333    -0.72860
O3106       O  0.64467514  0.52473830  0.26487397    -0.78520
O3107       O  0.69665309  0.97221863  0.31923519    -0.76720
O3108       O  0.68521840  0.98010524  0.25947534    -1.12850
O3109       O  0.69445854  0.92274107  0.28457374    -0.72050
C3110       C  0.71804435  0.91779784  0.26816596     0.98670
C3111       C  0.66723438  0.51118740  0.19849296     0.95070
Al3112     Al  0.68813883  0.52014913  0.26268703     1.55560
O3113       O  0.66806684  0.92720617  0.22671985    -0.76670
C3114       C  0.69699282  0.49937049  0.32839270     0.99230
C3115       C  0.74586049  0.50569731  0.23638560     0.94110
O3116       O  0.73100980  0.98842423  0.21763243    -0.81990
O3117       O  0.93540200  0.83760689  0.49792392    -0.81450
C3118       C  0.87629099  0.73283785  0.53705223     0.97900
O3119       O  0.89951453  0.74337648  0.55154157    -0.70570
O3120       O  0.93579547  0.74755169  0.50629048    -0.74160
Al3121     Al  0.92602855  0.77587658  0.53702777     1.48980
C3122       C  0.95432544  0.75662304  0.48669043     0.93160
O3123       O  0.88930348  0.77774232  0.45722559    -0.80380
O3124       O  0.85959328  0.83717361  0.52096942    -0.73940
Al3125     Al  0.91186041  0.80731224  0.47768918     1.90120
O3126       O  0.84528893  0.78880461  0.47907111    -0.73010
O3127       O  0.86872969  0.79484610  0.57005230    -0.72860
O3128       O  0.85803359  0.75046961  0.52328273    -0.78520
O3129       O  0.91728444  0.80352684  0.56793038    -0.76720
O3130       O  0.89927034  0.79258036  0.51289856    -1.12850
O3131       O  0.95928507  0.80486474  0.52820102    -0.72050
C3132       C  0.95817894  0.83070302  0.51486678     0.98670
C3133       C  0.86054624  0.77771733  0.45634290     0.95070
Al3134     Al  0.86024846  0.79325011  0.52302562     1.55560
O3135       O  0.94827255  0.78124468  0.47257397    -0.76670
C3136       C  0.89450118  0.79921259  0.58412232     0.99230
C3137       C  0.86574362  0.85117107  0.49573591     0.94110
O3138       O  0.88002819  0.83734933  0.47428481    -0.81990
O3139       O  0.88269818  0.58874953  0.54732845    -0.81450
C3140       C  0.87041371  0.98163189  0.48481118     0.97900
O3141       O  0.85404044  0.50096606  0.49832760    -0.70570
O3142       O  0.84476240  0.54045031  0.54224306    -0.74160
Al3143     Al  0.85965273  0.54351288  0.49870988     1.48980
C3144       C  0.85860643  0.52838095  0.56579641     0.93160
O3145       O  0.94619599  0.52779575  0.55291608    -0.80380
O3146       O  0.95880737  0.54817416  0.49600882    -0.73940
Al3147     Al  0.91222160  0.55658151  0.54629625     1.90120
O3148       O  0.93030060  0.49408980  0.51994435    -0.73010
O3149       O  0.91734747  0.54666225  0.45302598    -0.72860
O3150       O  0.89521352  0.98995715  0.47261176    -0.78520
O3151       O  0.86781264  0.54366480  0.45157715    -0.76720
O3152       O  0.89839265  0.54097418  0.51026841    -1.12850
O3153       O  0.86183824  0.58695386  0.50001969    -0.72050
C3154       C  0.86961942  0.60191117  0.52447998     0.98670
C3155       C  0.94998278  0.50228032  0.53942744     0.95070
Al3156     Al  0.92363096  0.52110860  0.48714940     1.55560
O3157       O  0.88723224  0.53045742  0.56870025    -0.76670
C3158       C  0.89331482  0.54471064  0.43705013     0.99230
C3159       C  0.96024908  0.57460322  0.50843817     0.94110
O3160       O  0.93884310  0.58390205  0.52566044    -0.81990
O3161       O  0.73295743  0.75531977  0.78674146    -0.81450
C3162       C  0.62637144  0.76090280  0.72200992     0.97900
O3163       O  0.64283886  0.77853754  0.73862290    -0.70570
O3164       O  0.68218874  0.78885355  0.78451505    -0.74160
Al3165     Al  0.68653293  0.77926642  0.74015858     1.48980
C3166       C  0.67018889  0.77248650  0.80542572     0.93160
O3167       O  0.67765358  0.68726838  0.77968943    -0.80380
O3168       O  0.70567637  0.68350531  0.72094250    -0.73940
Al3169     Al  0.70282192  0.72340972  0.78032087     1.90120
O3170       O  0.64746147  0.69656878  0.74044056    -0.73010
O3171       O  0.70147480  0.73204329  0.68574944    -0.72860
O3172       O  0.63919000  0.74125912  0.70433282    -0.78520
O3173       O  0.68878941  0.77918895  0.69394591    -0.76720
O3174       O  0.68832884  0.73915799  0.74500344    -1.12850
O3175       O  0.73042855  0.78125183  0.74256199    -0.72050
C3176       C  0.74582843  0.77087587  0.76567487     0.98670
C3177       C  0.65723556  0.67851306  0.76042362     0.95070
Al3178     Al  0.67482876  0.71555353  0.71486370     1.55560
O3179       O  0.67244174  0.74389346  0.80394549    -0.76670
C3180       C  0.69729245  0.75823060  0.67536747     0.99230
C3181       C  0.72801290  0.67999282  0.73996648     0.94110
O3182       O  0.73385193  0.70026168  0.76040593    -0.81990
O3183       O  0.97849558  0.69091701  0.75487320    -0.81450
C3184       C  0.87580223  0.75780951  0.78907920     0.97900
O3185       O  0.88373601  0.73375751  0.80353257    -0.70570
O3186       O  0.89023628  0.69380408  0.76169257    -0.74160
Al3187     Al  0.91667626  0.70533300  0.79359840     1.48980
C3188       C  0.89967582  0.67502771  0.74225866     0.93160
O3189       O  0.92338100  0.74097437  0.71025635    -0.80380
O3190       O  0.98308289  0.76853930  0.77720050    -0.73940
Al3191     Al  0.95078461  0.71629655  0.73348653     1.90120
O3192       O  0.93546477  0.78354290  0.73515783    -0.73010
O3193       O  0.94137255  0.76430943  0.82339803    -0.72860
O3194       O  0.89578139  0.77498982  0.77796013    -0.78520
O3195       O  0.94089798  0.71480046  0.82817934    -0.76720
O3196       O  0.93589853  0.73049555  0.76893380    -1.12850
O3197       O  0.94588056  0.67110863  0.78732023    -0.72050
C3198       C  0.97123077  0.66955993  0.77295185     0.98670
C3199       C  0.92362007  0.76973113  0.71174506     0.95070
Al3200     Al  0.93887924  0.76996222  0.77815992     1.55560
O3201       O  0.92354136  0.68151506  0.72759046    -0.76670
C3202       C  0.94420343  0.74063422  0.84009738     0.99230
C3203       C  0.99727850  0.75990666  0.75296891     0.94110
O3204       O  0.98332623  0.74553039  0.73129531    -0.81990
O3205       O  0.64145147  0.84542594  0.02883150    -0.81450
C3206       C  0.62046131  0.73278826  0.97552361     0.97900
O3207       O  0.60120211  0.75435619  0.97273737    -0.70570
O3208       O  0.58823465  0.78260949  0.02529578    -0.74160
Al3209     Al  0.60418867  0.79671182  0.98587732     1.48980
C3210       C  0.59987700  0.78268947  0.05244724     0.93160
O3211       O  0.68056004  0.76967875  0.04466746    -0.80380
O3212       O  0.69370346  0.81176223  0.96514037    -0.73940
Al3213     Al  0.65922117  0.80639514  0.03331979     1.90120
O3214       O  0.69794144  0.76159576  0.99810721    -0.73010
O3215       O  0.64957612  0.78220895  0.93297425    -0.72860
O3216       O  0.64893389  0.73771864  0.97542213    -0.78520
O3217       O  0.61167382  0.81192639  0.94383307    -0.76720
O3218       O  0.64416762  0.79306006  0.99661607    -1.12850
O3219       O  0.60108997  0.83916966  0.99832535    -0.72050
C3220       C  0.61831174  0.85615318  0.01491162     0.98670
C3221       C  0.69962909  0.75757314  0.02677205     0.95070
Al3222     Al  0.66976167  0.77498221  0.97020545     1.55560
O3223       O  0.62683474  0.79173033  0.05689625    -0.76670
C3224       C  0.62984874  0.80069778  0.92429086     0.99230
C3225       C  0.70561139  0.82636506  0.98827660     0.94110
O3226       O  0.69506506  0.82314734  0.01552895    -0.81990
O3227       O  0.67088216  0.59622054  0.00560018    -0.81450
C3228       C  0.61208123  0.98750474  0.03562556     0.97900
O3229       O  0.63115598  0.99977166  0.05505787    -0.70570
O3230       O  0.67897312  0.51029340  0.02519796    -0.74160
Al3231     Al  0.65640608  0.53667715  0.04882614     1.48980
C3232       C  0.69601224  0.52004405  0.00451923     0.93160
O3233       O  0.63162865  0.53283366  0.96080636    -0.80380
O3234       O  0.59026986  0.59057448  0.01935007    -0.73940
Al3235     Al  0.64998720  0.56404536  0.98424895     1.90120
O3236       O  0.58474076  0.54251522  0.97501218    -0.73010
O3237       O  0.59127437  0.54681819  0.06757229    -0.72860
O3238       O  0.59418396  0.50393142  0.01975641    -0.78520
O3239       O  0.63702884  0.56303293  0.07626113    -0.76720
O3240       O  0.63344514  0.54921317  0.01789960    -1.12850
O3241       O  0.68731193  0.56900368  0.04546292    -0.72050
C3242       C  0.69064901  0.59127608  0.02691647     0.98670
C3243       C  0.60326365  0.53087318  0.95556679     0.95070
Al3244     Al  0.59273964  0.54670374  0.02052129     1.55560
O3245       O  0.68691244  0.54045770  0.98601819    -0.76670
C3246       C  0.61218994  0.55488699  0.08694331     0.99230
C3247       C  0.60088917  0.60534942  0.99624954     0.94110
O3248       O  0.61725621  0.59217233  0.97600033    -0.81990
O3249       O  0.64958644  0.64830000  0.54132622    -0.81450
C3250       C  0.64651805  0.75351839  0.47721293     0.97900
O3251       O  0.66526408  0.73747580  0.49234501    -0.70570
O3252       O  0.68014537  0.70099569  0.53699640    -0.74160
Al3253     Al  0.66717200  0.69476098  0.49337529     1.48980
C3254       C  0.66429629  0.71279293  0.55874085     0.93160
O3255       O  0.57824059  0.70049658  0.54147154    -0.80380
O3256       O  0.56964390  0.67434241  0.48380775    -0.73940
Al3257     Al  0.61563058  0.67633309  0.53772861     1.90120
O3258       O  0.58722014  0.73297780  0.50497958    -0.73010
O3259       O  0.61362993  0.68025243  0.44197768    -0.72860
O3260       O  0.62496532  0.74033548  0.46218373    -0.78520
O3261       O  0.66208328  0.69150427  0.44714754    -0.76720
O3262       O  0.62781174  0.69165300  0.50161462    -1.12850
O3263       O  0.67141086  0.65191768  0.49522401    -0.72050
C3264       C  0.66399395  0.63635126  0.51880081     0.98670
C3265       C  0.57064473  0.72415160  0.52649350     0.95070
Al3266     Al  0.60072678  0.70576720  0.47502958     1.55560
O3267       O  0.63619705  0.70699396  0.56018432    -0.76670
C3268       C  0.63918849  0.68440747  0.42973147     0.99230
C3269       C  0.57036929  0.65001376  0.49999631     0.94110
O3270       O  0.59312395  0.64471593  0.51774936    -0.81990
O3271       O  0.58564791  0.90189974  0.49218670    -0.81450
C3272       C  0.65042837  0.50667219  0.52668632     0.97900
O3273       O  0.62646780  0.99819411  0.54057974    -0.70570
O3274       O  0.58506269  0.98995299  0.50183526    -0.74160
Al3275     Al  0.59924600  0.96428056  0.53251252     1.48980
C3276       C  0.56330401  0.98005069  0.48622262     0.93160
O3277       O  0.62747744  0.96172391  0.44715721    -0.80380
O3278       O  0.66081041  0.90101227  0.50999449    -0.73940
Al3279     Al  0.60668785  0.93216150  0.47040805     1.90120
O3280       O  0.67243986  0.95002169  0.46761490    -0.73010
O3281       O  0.66110040  0.94415160  0.55962599    -0.72860
O3282       O  0.66743225  0.98765299  0.51351200    -0.78520
O3283       O  0.61203597  0.94046073  0.56589614    -0.76720
O3284       O  0.62299612  0.94691345  0.50573101    -1.12850
O3285       O  0.56680875  0.93318484  0.52769638    -0.72050
C3286       C  0.56563653  0.90819695  0.51222055     0.98670
C3287       C  0.65636963  0.96331668  0.44631931     0.95070
Al3288     Al  0.66286265  0.94513409  0.51244061     1.55560
O3289       O  0.56862380  0.95690423  0.46939038    -0.76670
C3290       C  0.63815440  0.94233811  0.57765729     0.99230
C3291       C  0.65126005  0.88736471  0.48521931     0.94110
O3292       O  0.63849866  0.90290603  0.46390110    -0.81990
O3293       O  0.78248867  0.98633130  0.79352697    -0.81450
C3294       C  0.88933874  0.97811709  0.72848967     0.97900
O3295       O  0.87321089  0.96193966  0.74575249    -0.70570
O3296       O  0.83738303  0.95123948  0.79184574    -0.74160
Al3297     Al  0.83032692  0.96235514  0.74775730     1.48980
C3298       C  0.84800843  0.96750591  0.81435566     0.93160
O3299       O  0.84107193  0.55181362  0.79304188    -0.80380
O3300       O  0.81744601  0.56067120  0.73510374    -0.73940
Al3301     Al  0.81357188  0.51723016  0.78981452     1.90120
O3302       O  0.87383742  0.53958343  0.75736641    -0.73010
O3303       O  0.81746831  0.51507486  0.69633795    -0.72860
O3304       O  0.87669025  0.49957309  0.71357693    -0.78520
O3305       O  0.82548221  0.96614778  0.70122992    -0.76720
O3306       O  0.82912883  0.50204218  0.75492610    -1.12850
O3307       O  0.78745151  0.95913150  0.75034401    -0.72050
C3308       C  0.77149977  0.96832423  0.77296901     0.98670
C3309       C  0.86530738  0.55754563  0.77832514     0.95070
Al3310     Al  0.84509898  0.52683321  0.72762113     1.55560
O3311       O  0.84183129  0.99553528  0.81510300    -0.76670
C3312       C  0.81919931  0.98918631  0.68403181     0.99230
C3313       C  0.79198615  0.56258580  0.74868081     0.94110
O3314       O  0.78411306  0.54155151  0.76712523    -0.81990
O3315       O  0.54210874  0.54220744  0.75384488    -0.81450
C3316       C  0.64118070  0.96744529  0.78353755     0.97900
O3317       O  0.63235804  0.48874691  0.80158188    -0.70570
O3318       O  0.63122457  0.53438675  0.76852980    -0.74160
Al3319     Al  0.60140774  0.51996728  0.79441060     1.48980
C3320       C  0.62434395  0.55401626  0.74906203     0.93160
O3321       O  0.59754617  0.99677524  0.70722566    -0.80380
O3322       O  0.53572785  0.96376855  0.76601669    -0.73940
Al3323     Al  0.57048240  0.51850193  0.73137501     1.90120
O3324       O  0.58235105  0.95135782  0.72108440    -0.73010
O3325       O  0.58035934  0.95841915  0.81536977    -0.72860
O3326       O  0.62220866  0.95308958  0.76682192    -0.78520
O3327       O  0.57327369  0.50663129  0.82326826    -0.76720
O3328       O  0.58370604  0.99933582  0.76456977    -1.12850
O3329       O  0.57448872  0.55647651  0.79094097    -0.72050
C3330       C  0.54995823  0.56088620  0.77500487     0.98670
C3331       C  0.59530033  0.96878039  0.70131611     0.95070
Al3332     Al  0.57973812  0.95917313  0.76742025     1.55560
O3333       O  0.59995712  0.55131334  0.73303437    -0.76670
C3334       C  0.57770392  0.98091515  0.83444983     0.99230
C3335       C  0.52234319  0.97599115  0.74242951     0.94110
O3336       O  0.53797284  0.99056699  0.72289815    -0.81990
O3337       O  0.52740669  0.75932060  0.28005184    -0.81450
C3338       C  0.64312410  0.73713822  0.23838592     0.97900
O3339       O  0.62130554  0.71930311  0.23072315    -0.70570
O3340       O  0.59283145  0.70822509  0.28298229    -0.74160
Al3341     Al  0.57862207  0.72239412  0.24139957     1.48980
C3342       C  0.59200595  0.72096229  0.30993814     0.93160
O3343       O  0.60277894  0.79730358  0.29995451    -0.80380
O3344       O  0.56519684  0.80666327  0.21483230    -0.73940
Al3345     Al  0.56576905  0.77707508  0.28659272     1.90120
O3346       O  0.60995011  0.81679850  0.25458410    -0.73010
O3347       O  0.60406117  0.76095193  0.19245531    -0.72860
O3348       O  0.63892136  0.76562930  0.24179404    -0.78520
O3349       O  0.56448302  0.73320021  0.19683568    -0.76720
O3350       O  0.58171711  0.76117265  0.25248276    -1.12850
O3351       O  0.53656059  0.71849206  0.25197691    -0.72050
C3352       C  0.51851511  0.73489179  0.26756307     0.98670
C3353       C  0.61578745  0.81626281  0.28302464     0.95070
Al3354     Al  0.60260669  0.78525088  0.22812522     1.55560
O3355       O  0.57843684  0.74589794  0.31323223    -0.76670
C3356       C  0.58117768  0.74997716  0.17967015     0.99230
C3357       C  0.54800098  0.81919473  0.23541518     0.94110
O3358       O  0.55032555  0.81152686  0.26412704    -0.81990
O3359       O  0.77755271  0.78051421  0.24862558    -0.81450
C3360       C  0.88958673  0.72138911  0.28080013     0.97900
O3361       O  0.87881738  0.74478504  0.29439418    -0.70570
O3362       O  0.86705007  0.78836656  0.25777891    -0.74160
Al3363     Al  0.84222234  0.77030981  0.28653775     1.48980
C3364       C  0.85435163  0.80608419  0.23917586     0.93160
O3365       O  0.83720067  0.73826367  0.20203063    -0.80380
O3366       O  0.78631947  0.70366165  0.27081043    -0.73940
Al3367     Al  0.80821233  0.75862565  0.22639053     1.90120
O3368       O  0.83029626  0.69366840  0.22443918    -0.73010
O3369       O  0.83335415  0.70956616  0.31650847    -0.72860
O3370       O  0.87198331  0.70389662  0.26599876    -0.78520
O3371       O  0.81843286  0.75609189  0.31832138    -0.76720
O3372       O  0.82680202  0.74488727  0.26041739    -1.12850
O3373       O  0.80969866  0.80075106  0.28254790    -0.72050
C3374       C  0.78444573  0.80162702  0.26771732     0.98670
C3375       C  0.84142192  0.70977350  0.20251263     0.95070
Al3376     Al  0.82946259  0.70516513  0.26882004     1.55560
O3377       O  0.83155225  0.79687211  0.22303463    -0.76670
C3378       C  0.82848453  0.73375116  0.33250732     0.99230
C3379       C  0.76937459  0.71145418  0.24779422     0.94110
O3380       O  0.78031592  0.72494409  0.22424765    -0.81990
O3381       O  0.82814200  0.64735557  0.00077821    -0.81450
C3382       C  0.90042329  0.74712557  0.03939019     0.97900
O3383       O  0.87677972  0.73830236  0.05350217    -0.70570
O3384       O  0.83540450  0.73566362  0.01131223    -0.74160
Al3385     Al  0.84708882  0.70762248  0.04178794     1.48980
C3386       C  0.81410695  0.72681961  0.99398404     0.93160
O3387       O  0.87756101  0.70239502  0.95572240    -0.80380
O3388       O  0.90724976  0.64163160  0.01861072    -0.73940
Al3389     Al  0.85347804  0.67510898  0.97912312     1.90120
O3390       O  0.92107804  0.68949719  0.97848823    -0.73010
O3391       O  0.90683720  0.68135471  0.06778668    -0.72860
O3392       O  0.91588144  0.72792040  0.02436854    -0.78520
O3393       O  0.85734528  0.68157787  0.07411011    -0.76720
O3394       O  0.87018239  0.68873968  0.01474104    -1.12850
O3395       O  0.81186551  0.68036562  0.03551441    -0.72050
C3396       C  0.80832687  0.65540378  0.02058566     0.98670
C3397       C  0.90649644  0.70311803  0.95674050     0.95070
Al3398     Al  0.90992044  0.68501821  0.02196870     1.55560
O3399       O  0.81905653  0.70369584  0.97700516    -0.76670
C3400       C  0.88371289  0.67826771  0.08515629     0.99230
C3401       C  0.89750936  0.62795803  0.99415404     0.94110
O3402       O  0.88222104  0.64208605  0.97343809    -0.81990
O3403       O  0.88703210  0.89374728  0.04093401    -0.81450
C3404       C  0.90453821  0.49645925  0.97767757     0.97900
O3405       O  0.91984800  0.97980864  0.99599407    -0.70570
O3406       O  0.92462444  0.94197351  0.04262870    -0.74160
Al3407     Al  0.91792460  0.93680131  0.99707087     1.48980
C3408       C  0.90730446  0.95558642  0.06199958     0.93160
O3409       O  0.82414912  0.95371004  0.02789092    -0.80380
O3410       O  0.82231583  0.92231735  0.96899289    -0.73940
Al3411     Al  0.85800129  0.92535424  0.03186932     1.90120
O3412       O  0.83664360  0.98083277  0.98745449    -0.73010
O3413       O  0.87413762  0.92153702  0.94045975    -0.72860
O3414       O  0.88581391  0.98442086  0.95787505    -0.78520
O3415       O  0.92080215  0.93468524  0.94957448    -0.76720
O3416       O  0.87719453  0.93779485  0.99841644    -1.12850
O3417       O  0.91749984  0.89272776  0.00037801    -0.72050
C3418       C  0.90517116  0.87911740  0.02338948     0.98670
C3419       C  0.81827276  0.97458617  0.00834238     0.95070
Al3420     Al  0.85661612  0.95102089  0.96577585     1.55560
O3421       O  0.87878471  0.95416458  0.05751917    -0.76670
C3422       C  0.89966556  0.92757671  0.92989991     0.99230
C3423       C  0.81718002  0.90018463  0.98717992     0.94110
O3424       O  0.83491471  0.89512620  0.01010967    -0.81990
C3425       C  0.90140811  0.59453710  0.99070124    -0.04990
C3426       C  0.92362057  0.58155824  0.97103770    -0.02110
C3427       C  0.92677864  0.54950975  0.96875257     0.02880
C3428       C  0.90525842  0.53023763  0.98281330    -0.04990
C3429       C  0.88512783  0.54343873  0.00462505    -0.02090
C3430       C  0.88246416  0.57519242  0.00773590     0.02880
C3431       C  0.94310420  0.60084609  0.95275351     0.37530
C3432       C  0.87036618  0.52502111  0.02762258     0.37520
C3433       C  0.85945261  0.58776889  0.02817083     0.35940
C3434       C  0.95510234  0.53717443  0.95735700     0.35940
N3435       N  0.84059295  0.59698339  0.04433095    -0.38880
N3436       N  0.97898948  0.52884183  0.94990925    -0.38880
N3437       N  0.85893622  0.51236221  0.04788279    -0.38320
N3438       N  0.95865164  0.61540447  0.93719772    -0.38320
C3439       C  0.91032430  0.84554958  0.03029888    -0.04990
C3440       C  0.89928274  0.83257954  0.05857021    -0.02110
C3441       C  0.89719535  0.80064874  0.06211154     0.02880
C3442       C  0.90847561  0.78065322  0.03892341    -0.04990
C3443       C  0.92460631  0.79362745  0.01362802    -0.02090
C3444       C  0.92406495  0.82552755  0.00840071     0.02880
C3445       C  0.89001586  0.85177423  0.08457299     0.37530
C3446       C  0.94269701  0.77461345  0.99318430     0.37520
C3447       C  0.93698885  0.83721177  0.97979453     0.35940
C3448       C  0.88338152  0.78828512  0.08995928     0.35940
N3449       N  0.94717146  0.84631585  0.95681711    -0.38880
N3450       N  0.87210512  0.77754059  0.11156880    -0.38880
N3451       N  0.95823498  0.76003745  0.97734352    -0.38320
N3452       N  0.88265997  0.86718048  0.10522941    -0.38320
C3453       C  0.85920394  0.69581068  0.17660115    -0.04990
C3454       C  0.85069698  0.66759706  0.16318275    -0.02110
C3455       C  0.86419416  0.65778032  0.13504731     0.02880
C3456       C  0.88563813  0.67632882  0.11977608    -0.04990
C3457       C  0.89796761  0.70153328  0.13607749    -0.02090
C3458       C  0.88453610  0.71156946  0.16417342     0.02880
C3459       C  0.82647383  0.64972467  0.17669498     0.37530
C3460       C  0.92237377  0.71897990  0.12232656     0.37520
C3461       C  0.89679146  0.73825923  0.18014165     0.35940
C3462       C  0.85417725  0.62960017  0.12054127     0.35940
N3463       N  0.90662140  0.75943592  0.19296982    -0.38880
N3464       N  0.84576896  0.60678782  0.10995235    -0.38880
N3465       N  0.94183696  0.73290171  0.11135528    -0.38320
N3466       N  0.80718186  0.63538270  0.18741322    -0.38320
C3467       C  0.73597402  0.70867497  0.24924609    -0.04990
C3468       C  0.71915262  0.69968470  0.22224036    -0.02110
C3469       C  0.68803865  0.70737970  0.21928753     0.02880
C3470       C  0.67399703  0.72451613  0.24314652    -0.04990
C3471       C  0.69002512  0.73059078  0.27140286    -0.02090
C3472       C  0.72086301  0.72238728  0.27465213     0.02880
C3473       C  0.73422009  0.68378131  0.19689035     0.37530
C3474       C  0.67569144  0.74748296  0.29639937     0.37520
C3475       C  0.73756908  0.73095116  0.30303964     0.35940
C3476       C  0.67123590  0.69969294  0.19075419     0.35940
N3477       N  0.75059058  0.73791139  0.32576343    -0.38880
N3478       N  0.65782182  0.69357186  0.16800617    -0.38880
N3479       N  0.66548954  0.76219563  0.31616731    -0.38320
N3480       N  0.74609040  0.67117171  0.17652792    -0.38320
C3481       C  0.98639872  0.72539557  0.27252816    -0.04990
C3482       C  0.97314749  0.72935868  0.30242126    -0.02110
C3483       C  0.94176857  0.72390430  0.30643677     0.02880
C3484       C  0.92323864  0.71583860  0.28051251    -0.04990
C3485       C  0.93767382  0.70551033  0.25296330    -0.02090
C3486       C  0.96883540  0.71173081  0.24826647     0.02880
C3487       C  0.99181871  0.73825472  0.32934955     0.37530
C3488       C  0.92178465  0.68546043  0.23124963     0.37520
C3489       C  0.98221103  0.70512830  0.21807400     0.35940
C3490       C  0.92959474  0.72189602  0.33771772     0.35940
N3491       N  0.99277156  0.69994487  0.19391474    -0.38880
N3492       N  0.92059099  0.71924060  0.36291367    -0.38880
N3493       N  0.91007729  0.66793547  0.21471882    -0.38320
N3494       N  0.50667731  0.74536907  0.35082141    -0.38320
C3495       C  0.98838311  0.97409379  0.73662696    -0.04990
C3496       C  0.97356008  0.99515656  0.71607287    -0.02110
C3497       C  0.94179218  0.99391526  0.71060274     0.02880
C3498       C  0.92341275  0.97354034  0.72759748    -0.04350
C3499       C  0.93826895  0.95132115  0.74664581    -0.02090
C3500       C  0.97040067  0.95151504  0.75089407     0.02880
C3501       C  0.99009701  0.51973459  0.70125574     0.37530
C3502       C  0.92090184  0.92776196  0.76202033     0.37520
C3503       C  0.98470916  0.92816888  0.77002722     0.35940
C3504       C  0.92841097  0.51425610  0.68736723     0.35940
N3505       N  0.99597072  0.90948303  0.78531206    -0.38880
N3506       N  0.91801314  0.53051197  0.66881454    -0.38880
N3507       N  0.90725588  0.90887772  0.77430392    -0.38320
N3508       N  0.50254082  0.53960201  0.68924369    -0.38320
C3509       C  0.73851017  0.96090364  0.77370044    -0.04990
C3510       C  0.71995267  0.96961357  0.74811735    -0.02110
C3511       C  0.68822986  0.97207285  0.75156291     0.02880
C3512       C  0.67427085  0.96173025  0.77918113    -0.04990
C3513       C  0.69248533  0.94716073  0.80219213    -0.02090
C3514       C  0.72471983  0.94873342  0.80056306     0.02880
C3515       C  0.73353444  0.97685684  0.71832943     0.37530
C3516       C  0.67817606  0.92984867  0.82670661     0.37520
C3517       C  0.74363720  0.93752642  0.82612642     0.35940
C3518       C  0.67092022  0.98725429  0.72708666     0.35940
N3519       N  0.75881496  0.92868080  0.84655297    -0.38880
N3520       N  0.65933742  0.00028662  0.70668843    -0.38880
N3521       N  0.66674179  0.91591506  0.84620811    -0.38320
N3522       N  0.74433105  0.98163393  0.69432772    -0.38320
C3523       C  0.86796793  0.95425179  0.84037940    -0.04990
C3524       C  0.88924798  0.97294290  0.85727755    -0.02110
C3525       C  0.90618564  0.96126127  0.88314904     0.02880
C3526       C  0.90026622  0.93218731  0.89488385    -0.04990
C3527       C  0.88263800  0.91244738  0.87574303    -0.02090
C3528       C  0.86676484  0.92305354  0.84862544     0.02880
C3529       C  0.89381343  0.50450025  0.84879375     0.37530
C3530       C  0.88045642  0.88121849  0.88538309     0.37520
C3531       C  0.84809737  0.90207633  0.83044149     0.35940
C3532       C  0.93115718  0.97838344  0.89647504     0.35940
N3533       N  0.83322541  0.88555331  0.81555440    -0.38880
N3534       N  0.95228125  0.49152407  0.90556686    -0.38880
N3535       N  0.87987960  0.85663739  0.89462127    -0.38320
N3536       N  0.89731032  0.52983127  0.84261705    -0.38320
C3537       C  0.63866080  0.94889098  0.61217950    -0.04990
C3538       C  0.62702024  0.97766363  0.62073222    -0.02110
C3539       C  0.60727035  0.98075034  0.64595176     0.02880
C3540       C  0.60733088  0.95884025  0.67000988    -0.04990
C3541       C  0.62370821  0.93148110  0.66475308    -0.02090
C3542       C  0.63655005  0.92540342  0.63467600     0.02880
C3543       C  0.63567495  0.50517112  0.60500179     0.37530
C3544       C  0.62899462  0.91087884  0.69047218     0.37520
C3545       C  0.64778706  0.89538647  0.62697596     0.35940
C3546       C  0.58680372  0.50689383  0.64653093     0.35940
N3547       N  0.65671356  0.87137174  0.62064992    -0.38880
N3548       N  0.57056823  0.52768634  0.64660769    -0.38880
N3549       N  0.63403457  0.89527532  0.71164000    -0.38320
N3550       N  0.64144148  0.52894451  0.59537518    -0.38320
C3551       C  0.60891287  0.70894458  0.33857148    -0.04990
C3552       C  0.62228740  0.72987355  0.36058208    -0.02110
C3553       C  0.64092571  0.71950509  0.38538664     0.02880
C3554       C  0.63911320  0.68919628  0.39501131    -0.04990
C3555       C  0.62604061  0.66783513  0.37375114    -0.02090
C3556       C  0.61283812  0.67749345  0.34465174     0.02880
C3557       C  0.61581983  0.76224288  0.36024948     0.37530
C3558       C  0.62734580  0.63587040  0.38129613     0.37520
C3559       C  0.60148021  0.65514125  0.32231994     0.35940
C3560       C  0.66120233  0.74058515  0.40167459     0.35940
N3561       N  0.59261898  0.63721091  0.30441969    -0.38880
N3562       N  0.67791829  0.75756641  0.41361485    -0.38880
N3563       N  0.62873967  0.61017590  0.38676782    -0.38320
N3564       N  0.61108465  0.78809744  0.36190545    -0.38320
C3565       C  0.66638981  0.60293130  0.51760945    -0.04990
C3566       C  0.68377294  0.58621166  0.53965550    -0.02110
C3567       C  0.68034820  0.55420097  0.54133051     0.02880
C3568       C  0.65725190  0.53955764  0.52329900    -0.04990
C3569       C  0.64109696  0.55648256  0.50043678    -0.02090
C3570       C  0.64649756  0.58761371  0.49686053     0.02880
C3571       C  0.70487298  0.60196383  0.56053748     0.37530
C3572       C  0.61763263  0.54309810  0.48079957     0.37520
C3573       C  0.62958247  0.60422645  0.47292996     0.35940
C3574       C  0.70005792  0.53654838  0.56185629     0.35940
N3575       N  0.61554226  0.61672031  0.45382338    -0.38880
N3576       N  0.71576840  0.52238857  0.57822563    -0.38880
N3577       N  0.59767448  0.53593609  0.46443046    -0.38320
N3578       N  0.72165913  0.61463074  0.57724165    -0.38320
C3579       C  0.64979638  0.78783541  0.47745750    -0.04990
C3580       C  0.63027556  0.80623980  0.45876650    -0.02110
C3581       C  0.63363485  0.83813890  0.45863813     0.02880
C3582       C  0.65297176  0.85320135  0.48098805    -0.04990
C3583       C  0.67230840  0.83502851  0.49998320    -0.02090
C3584       C  0.67164672  0.80283783  0.49739555     0.02880
C3585       C  0.60529298  0.79303687  0.44051008     0.37530
C3586       C  0.69384973  0.84926874  0.52169775     0.37520
C3587       C  0.69368551  0.78570595  0.51590904     0.35940
C3588       C  0.61753294  0.85478169  0.43421568     0.35940
N3589       N  0.71167626  0.77249011  0.53057125    -0.38880
N3590       N  0.60533390  0.86758935  0.41401256    -0.38880
N3591       N  0.71103941  0.86050173  0.53907058    -0.38320
N3592       N  0.58481906  0.78278199  0.42664365    -0.38320
C3593       C  0.59365218  0.51620070  0.92525404    -0.04990
C3594       C  0.56849697  0.49614642  0.92140462    -0.02110
C3595       C  0.56349180  0.98089456  0.89197721     0.02880
C3596       C  0.58635520  0.98103271  0.86873209    -0.04990
C3597       C  0.61358321  0.49696746  0.87652784    -0.02090
C3598       C  0.61407799  0.51862477  0.90043333     0.02880
C3599       C  0.54827350  0.99101819  0.94729313     0.37530
C3600       C  0.64270993  0.49056629  0.86282861     0.37520
C3601       C  0.63637970  0.54315431  0.89938002     0.35940
C3602       C  0.53517272  0.96502187  0.88564960     0.35940
N3603       N  0.65398633  0.56270883  0.89854060    -0.38880
N3604       N  0.51253039  0.95229326  0.88054069    -0.38880
N3605       N  0.66769093  0.48818788  0.85480777    -0.38320
N3606       N  0.53244187  0.98659238  0.96822997    -0.38320
C3607       C  0.77940091  0.63686998  0.02411572    -0.04990
C3608       C  0.76815241  0.61907472  0.99857155    -0.02110
C3609       C  0.73846031  0.60664879  0.99896901     0.02880
C3610       C  0.72052150  0.60812691  0.02633437    -0.04990
C3611       C  0.73264956  0.62343614  0.05294147    -0.02090
C3612       C  0.76135954  0.63855021  0.05157580     0.02880
C3613       C  0.78662502  0.61357735  0.97106984     0.37530
C3614       C  0.71499689  0.62468126  0.08136714     0.37520
C3615       C  0.77248931  0.65513996  0.07890362     0.35940
C3616       C  0.72669226  0.59265973  0.97035150     0.35940
N3617       N  0.78130713  0.66841502  0.10073189    -0.38880
N3618       N  0.71830194  0.58231222  0.94674428    -0.38880
N3619       N  0.70093070  0.62567509  0.10408967    -0.38320
N3620       N  0.80119169  0.60887708  0.94914687    -0.38320
C3621       C  0.72773004  0.50989578  0.00480891    -0.04990
C3622       C  0.74207939  0.00209602  0.97676289    -0.02110
C3623       C  0.77219411  0.99138399  0.97770485     0.02880
C3624       C  0.78831907  0.98941300  0.00690234    -0.04990
C3625       C  0.77468821  0.49987596  0.03437926    -0.02090
C3626       C  0.74433560  0.50947244  0.03363667     0.02880
C3627       C  0.72559264  0.00408529  0.94700205     0.37530
C3628       C  0.79198456  0.50289599  0.06338063     0.37520
C3629       C  0.73127448  0.51969803  0.06300700     0.35940
C3630       C  0.78553721  0.98174800  0.94831988     0.35940
N3631       N  0.72251854  0.52749349  0.08724493    -0.38880
N3632       N  0.79507447  0.97449402  0.92423577    -0.38880
N3633       N  0.80404092  0.50719633  0.08724924    -0.38320
N3634       N  0.71256675  0.00574441  0.92326989    -0.38320
C3635       C  0.61188541  0.95377597  0.02915754    -0.04990
C3636       C  0.63452488  0.94093549  0.00991753    -0.02110
C3637       C  0.63597723  0.90922846  0.00496698     0.02880
C3638       C  0.61344676  0.88985950  0.01687374    -0.04990
C3639       C  0.58727717  0.90333050  0.03015586    -0.02090
C3640       C  0.58618258  0.93537522  0.03523733     0.02880
C3641       C  0.65149443  0.96002382  0.98897893     0.37530
C3642       C  0.56130446  0.88457283  0.03758770     0.37520
C3643       C  0.55749430  0.95013876  0.04162421     0.35940
C3644       C  0.65896366  0.89706241  0.98440979     0.35940
N3645       N  0.53492377  0.96326097  0.04520913    -0.38880
N3646       N  0.67736620  0.88851441  0.96740088    -0.38880
N3647       N  0.54052948  0.86955177  0.04345911    -0.38320
N3648       N  0.66406895  0.97332954  0.96982294    -0.38320
C3649       C  0.60993782  0.70133332  0.98203161    -0.04990
C3650       C  0.59512335  0.68334830  0.95893271    -0.02110
C3651       C  0.58899361  0.65227136  0.96476178     0.02880
C3652       C  0.59790737  0.63894099  0.99360998    -0.04990
C3653       C  0.61144150  0.65738606  0.01706740    -0.02090
C3654       C  0.61690443  0.68844114  0.01156821     0.02880
C3655       C  0.58808647  0.69615295  0.92849173     0.37530
C3656       C  0.62333694  0.64364332  0.04546739     0.37520
C3657       C  0.63037323  0.70682163  0.03650685     0.35940
C3658       C  0.57480024  0.63355766  0.94053253     0.35940
N3659       N  0.64087488  0.72056831  0.05719113    -0.38880
N3660       N  0.56352948  0.61853670  0.92123406    -0.38880
N3661       N  0.63357971  0.63244382  0.06766104    -0.38320
N3662       N  0.58261032  0.70606388  0.90399667    -0.38320
C3663       C  0.57642347  0.75952194  0.14571869    -0.04990
C3664       C  0.58740588  0.78885961  0.13624107    -0.02110
C3665       C  0.58546985  0.79810768  0.10500972     0.02880
C3666       C  0.58208007  0.77629830  0.08132184    -0.04990
C3667       C  0.57018800  0.74744389  0.08928092    -0.02090
C3668       C  0.56610637  0.73953977  0.12153148     0.02880
C3669       C  0.60622487  0.80856903  0.15595514     0.37530
C3670       C  0.56231992  0.72610525  0.06455777     0.37520
C3671       C  0.55482438  0.70976069  0.12959555     0.35940
C3672       C  0.59258549  0.82948110  0.09686887     0.35940
N3673       N  0.54587848  0.68590237  0.13605021    -0.38880
N3674       N  0.59887110  0.85432116  0.09102793    -0.38880
N3675       N  0.55544992  0.70912171  0.04486258    -0.38320
N3676       N  0.62220307  0.82533947  0.16930036    -0.38320
C3677       C  0.72746638  0.74194168  0.03684706    -0.04990
C3678       C  0.75170338  0.76222183  0.04256228    -0.02110
C3679       C  0.77839948  0.76014413  0.02462018     0.02880
C3680       C  0.78243182  0.73558705  0.00317612    -0.04990
C3681       C  0.75851641  0.71421207  0.99936067    -0.02090
C3682       C  0.73305118  0.71542956  0.01906730     0.02880
C3683       C  0.74714503  0.78786105  0.06357207     0.37530
C3684       C  0.75844265  0.69276634  0.97339424     0.37520
C3685       C  0.70918832  0.69276169  0.01588788     0.35940
C3686       C  0.80076311  0.78444383  0.02686170     0.35940
N3687       N  0.69039450  0.67448108  0.01297787    -0.38880
N3688       N  0.81850606  0.80388154  0.02848240    -0.38880
N3689       N  0.75789919  0.67624724  0.95216555    -0.38320
N3690       N  0.74349915  0.80836061  0.08025925    -0.38320
C3691       C  0.78790478  0.88257785  0.98491843    -0.04990
C3692       C  0.78283475  0.85941768  0.96233047    -0.02110
C3693       C  0.75575016  0.84159866  0.96249809     0.02880
C3694       C  0.73292830  0.84705290  0.98509525    -0.04990
C3695       C  0.73801511  0.87084161  0.00740693    -0.02090
C3696       C  0.76525731  0.88791770  0.00752802     0.02880
C3697       C  0.80620087  0.85242528  0.93996380     0.37530
C3698       C  0.71547930  0.87815475  0.03100202     0.37520
C3699       C  0.76996533  0.91041734  0.03218263     0.35940
C3700       C  0.75256012  0.81637775  0.94060960     0.35940
N3701       N  0.77238637  0.92756623  0.05275451    -0.38880
N3702       N  0.75019738  0.79617379  0.92321705    -0.38880
N3703       N  0.69794513  0.88427136  0.05007188    -0.38320
N3704       N  0.82434822  0.84582147  0.92180050    -0.38320
C3705       C  0.94594042  0.74167912  0.87480337    -0.04990
C3706       C  0.92321226  0.75790043  0.89055517    -0.02110
C3707       C  0.91062309  0.74610622  0.91811264     0.02880
C3708       C  0.92316422  0.71938309  0.93159307    -0.04990
C3709       C  0.95148925  0.70860412  0.92026887    -0.02090
C3710       C  0.96199491  0.71872152  0.89104109     0.02880
C3711       C  0.91249362  0.78594097  0.87712176     0.37530
C3712       C  0.97026098  0.68799996  0.93857600     0.37520
C3713       C  0.98846243  0.70472996  0.87686050     0.35940
C3714       C  0.88531072  0.76175096  0.93272510     0.35940
N3715       N  0.00952802  0.69356002  0.86544681    -0.38880
N3716       N  0.86516508  0.77421346  0.94449452    -0.38880
N3717       N  0.98608510  0.67261011  0.95356980    -0.38320
N3718       N  0.90623185  0.80838532  0.86476075    -0.38320
C3719       C  0.99228918  0.64207168  0.77521241    -0.04990
C3720       C  0.99208053  0.62180436  0.80109435    -0.02110
C3721       C  0.51185732  0.59598777  0.80204206     0.02880
C3722       C  0.53198213  0.58987957  0.77721273    -0.04990
C3723       C  0.53238238  0.61003704  0.75161446    -0.02090
C3724       C  0.51308901  0.63575287  0.75056515     0.02880
C3725       C  0.97171093  0.62733959  0.82695855     0.37530
C3726       C  0.55218221  0.60408464  0.72526768     0.37520
C3727       C  0.51441238  0.65484115  0.72289652     0.35940
C3728       C  0.01076921  0.57503428  0.82805752     0.35940
N3729       N  0.51571817  0.66980650  0.70074350    -0.38880
N3730       N  0.00992119  0.55822432  0.84877463    -0.38880
N3731       N  0.56718708  0.60016643  0.70353356    -0.38320
N3732       N  0.95541363  0.63169244  0.84761512    -0.38320
C3733       C  0.87840410  0.58850165  0.77769768    -0.04990
C3734       C  0.90540501  0.59273068  0.76053818    -0.02110
C3735       C  0.90938451  0.61918093  0.74274827     0.02880
C3736       C  0.88829083  0.64341223  0.74513456    -0.04990
C3737       C  0.86142060  0.63902743  0.76263865    -0.02090
C3738       C  0.85809597  0.61304838  0.78107985     0.02880
C3739       C  0.92920232  0.56971557  0.76142714     0.37530
C3740       C  0.83676910  0.66109106  0.76178495     0.37520
C3741       C  0.83440910  0.61224774  0.80442741     0.35940
C3742       C  0.93446973  0.62061531  0.72106621     0.35940
N3743       N  0.81608624  0.61211113  0.82365823    -0.38880
N3744       N  0.95410275  0.62123123  0.70325993    -0.38880
N3745       N  0.81637800  0.67782277  0.76151304    -0.38320
N3746       N  0.94830897  0.55154296  0.76250127    -0.38320
C3747       C  0.69657854  0.76111586  0.64060628    -0.04990
C3748       C  0.66894517  0.76991097  0.62595911    -0.02110
C3749       C  0.65985989  0.75632907  0.59723252     0.02880
C3750       C  0.67795249  0.73308326  0.58351214    -0.04990
C3751       C  0.70799065  0.72876984  0.59515474    -0.02090
C3752       C  0.71754407  0.74379591  0.62299625     0.02880
C3753       C  0.64854992  0.79083890  0.64162465     0.37530
C3754       C  0.72853932  0.70767569  0.57988728     0.37520
C3755       C  0.74891159  0.74122416  0.63374145     0.35940
C3756       C  0.63146161  0.76589276  0.58233222     0.35940
N3757       N  0.77440713  0.73959589  0.64097916    -0.38880
N3758       N  0.60882539  0.77367047  0.57057208    -0.38880
N3759       N  0.74499304  0.69084194  0.56776196    -0.38320
N3760       N  0.63212309  0.80756099  0.65390393    -0.38320
C3761       C  0.59206121  0.76168648  0.72619012    -0.04990
C3762       C  0.57652994  0.73508128  0.73541484    -0.02110
C3763       C  0.54867559  0.73706886  0.75113027     0.02880
C3764       C  0.53097129  0.76353860  0.74960400    -0.04990
C3765       C  0.54443965  0.79000990  0.73742554    -0.02090
C3766       C  0.57554468  0.78952165  0.72785824     0.02880
C3767       C  0.58592049  0.70512702  0.72578688     0.37530
C3768       C  0.52645937  0.81757683  0.73503596     0.37520
C3769       C  0.58967804  0.81724908  0.71760401     0.35940
C3770       C  0.54025013  0.71299966  0.77225717     0.35940
N3771       N  0.60068667  0.83953357  0.70917331    -0.38880
N3772       N  0.53519875  0.69462256  0.79071589    -0.38880
N3773       N  0.51199140  0.83953763  0.73302628    -0.38320
N3774       N  0.59029175  0.68036797  0.71778392    -0.38320
C3775       C  0.77975510  0.77315890  0.76692490    -0.04990
C3776       C  0.79721166  0.75254582  0.74936023    -0.02110
C3777       C  0.82882822  0.74941399  0.75527825     0.02880
C3778       C  0.84281333  0.76409333  0.78147872    -0.04990
C3779       C  0.82590604  0.78715499  0.79675664    -0.02090
C3780       C  0.79496385  0.79266087  0.78819772     0.02880
C3781       C  0.78280105  0.73501250  0.72445092     0.37530
C3782       C  0.84000917  0.80613048  0.82049818     0.37520
C3783       C  0.78031259  0.82074852  0.79744604     0.35940
C3784       C  0.84690967  0.73412704  0.73180245     0.35940
N3785       N  0.76966234  0.84412730  0.80348078    -0.38880
N3786       N  0.85974303  0.72271052  0.71134024    -0.38880
N3787       N  0.84968823  0.82227537  0.83963462    -0.38320
N3788       N  0.77156003  0.72079548  0.70457213    -0.38320
C3789       C  0.65490826  0.78687489  0.83283166    -0.04990
C3790       C  0.67096601  0.80794313  0.85171910    -0.02110
C3791       C  0.65791948  0.81962878  0.87926132     0.02880
C3792       C  0.63023736  0.80767863  0.89039266    -0.04990
C3793       C  0.61274913  0.78891295  0.87017252    -0.02090
C3794       C  0.62518200  0.77817851  0.84166336     0.02880
C3795       C  0.70304426  0.81310871  0.84649267     0.37530
C3796       C  0.58306926  0.77866504  0.88019063     0.37520
C3797       C  0.60862600  0.75598689  0.82299142     0.35940
C3798       C  0.67537795  0.84097618  0.89823472     0.35940
N3799       N  0.59588281  0.73763795  0.80840250    -0.38880
N3800       N  0.69053362  0.85805721  0.91201911    -0.38880
N3801       N  0.55926010  0.77081441  0.88822941    -0.38320
N3802       N  0.72902631  0.81633430  0.84402409    -0.38320
C3803       C  0.74465502  0.65003602  0.74132686    -0.04990
C3804       C  0.74557451  0.63353831  0.76980052    -0.02110
C3805       C  0.75771784  0.60372809  0.77100398     0.02880
C3806       C  0.77305581  0.59116710  0.74495119    -0.04990
C3807       C  0.77277893  0.60798772  0.71654405    -0.02090
C3808       C  0.75730685  0.63639002  0.71440189     0.02880
C3809       C  0.73439149  0.64707116  0.79851989     0.37530
C3810       C  0.78827978  0.59626241  0.68921541     0.37520
C3811       C  0.75509783  0.65187280  0.68455582     0.35940
C3812       C  0.75478654  0.58647181  0.79969484     0.35940
N3813       N  0.75317297  0.66404978  0.66064317    -0.38880
N3814       N  0.75216837  0.57282298  0.82259276    -0.38880
N3815       N  0.80095610  0.58740825  0.66736640    -0.38320
N3816       N  0.72633195  0.65746444  0.82197451    -0.38320
C3817       C  0.64111629  0.58279742  0.75005867    -0.04990
C3818       C  0.64123401  0.60078377  0.72335736    -0.02110
C3819       C  0.64570986  0.63217452  0.72636168     0.02880
C3820       C  0.64992750  0.64578796  0.75683703    -0.04990
C3821       C  0.65216905  0.62688438  0.78324328    -0.02090
C3822       C  0.65012456  0.59533378  0.77948491     0.02880
C3823       C  0.63734695  0.58653621  0.69262742     0.37530
C3824       C  0.65486424  0.63975466  0.81463292     0.37520
C3825       C  0.65773346  0.57619843  0.80605398     0.35940
C3826       C  0.64542838  0.64911320  0.69732826     0.35940
N3827       N  0.66449272  0.56113078  0.82717763    -0.38880
N3828       N  0.64442378  0.66086677  0.67312468    -0.38880
N3829       N  0.65671841  0.64990781  0.83968906    -0.38320
N3830       N  0.63430209  0.57515135  0.66824205    -0.38320
C3831       C  0.84224407  0.51192695  0.59128030    -0.04990
C3832       C  0.85617288  0.48615292  0.60554911    -0.02110
C3833       C  0.84532075  0.47472203  0.63420618     0.02880
C3834       C  0.82022690  0.98871860  0.64891625    -0.04990
C3835       C  0.80321871  0.51077339  0.63172615    -0.02090
C3836       C  0.81433037  0.52253585  0.60324841     0.02880
C3837       C  0.88200156  0.47133478  0.59089115     0.37530
C3838       C  0.77520929  0.02309093  0.64429891     0.37520
C3839       C  0.79797703  0.54689880  0.58754479     0.35940
C3840       C  0.86196474  0.45047214  0.64983044     0.35940
N3841       N  0.78484665  0.56628706  0.57500827    -0.38880
N3842       N  0.87538850  0.43119859  0.66223730    -0.38880
N3843       N  0.75283340  0.03352188  0.65367235    -0.38320
N3844       N  0.90246299  0.45930875  0.57923202    -0.38320
C3845       C  0.98839961  0.59375197  0.50534359    -0.04990
C3846       C  0.50469177  0.60295735  0.53258598    -0.02110
C3847       C  0.53284366  0.61834055  0.53035533     0.02880
C3848       C  0.54313113  0.62907822  0.50102790    -0.04990
C3849       C  0.52598429  0.62121470  0.47372104    -0.02090
C3850       C  0.99943750  0.60271216  0.47579117     0.02880
C3851       C  0.49202884  0.59762263  0.56328293     0.37530
C3852       C  0.53614257  0.63135220  0.44336999     0.37520
C3853       C  0.98261168  0.59420775  0.44758044     0.35940
C3854       C  0.55096784  0.62293353  0.55875906     0.35940
N3855       N  0.96917820  0.58752596  0.42501275    -0.38880
N3856       N  0.56528503  0.62613858  0.58156243    -0.38880
N3857       N  0.54431490  0.63951347  0.41917421    -0.38320
N3858       N  0.48157760  0.59430059  0.58776545    -0.38320
C3859       C  0.98056785  0.48801872  0.53660929    -0.04990
C3860       C  0.50558140  0.50642767  0.54424180    -0.02110
C3861       C  0.52973716  0.50890751  0.52323382     0.02880
C3862       C  0.53214631  0.98820954  0.49740654    -0.04990
C3863       C  0.50789908  0.96794228  0.49140203    -0.02090
C3864       C  0.98387844  0.96571995  0.51271958     0.02880
C3865       C  0.50673005  0.52192719  0.57432173     0.37530
C3866       C  0.50544630  0.95245337  0.46145285     0.37520
C3867       C  0.96127344  0.94182000  0.50873264     0.35940
C3868       C  0.55169580  0.53316809  0.52852181     0.35940
N3869       N  0.94324378  0.92279719  0.50557488    -0.38880
N3870       N  0.56896418  0.55259494  0.53327284    -0.38880
N3871       N  0.50231373  0.94141399  0.43692429    -0.38320
N3872       N  0.50803371  0.53343997  0.59876980    -0.38320
C3873       C  0.90110908  0.79557259  0.61860812    -0.04990
C3874       C  0.93161112  0.78768287  0.62867599    -0.02110
C3875       C  0.93928349  0.78588619  0.66042011     0.02880
C3876       C  0.91640347  0.78613646  0.68265922    -0.04990
C3877       C  0.88642728  0.79480481  0.67389094    -0.02090
C3878       C  0.87882551  0.79999994  0.64185400     0.02880
C3879       C  0.95563635  0.77787707  0.60770730     0.37530
C3880       C  0.86416560  0.80043623  0.69791337     0.37520
C3881       C  0.84821311  0.80937146  0.63299386     0.35940
C3882       C  0.97111254  0.78181265  0.67000743     0.35940
N3883       N  0.82373346  0.81684023  0.62594178    -0.38880
N3884       N  0.99670476  0.77886750  0.67634585    -0.38880
N3885       N  0.84634586  0.80608488  0.71682210    -0.38320
N3886       N  0.97607497  0.76946421  0.59306081    -0.38320
C3887       C  0.85842760  0.88434818  0.49079723    -0.04990
C3888       C  0.86430636  0.89806668  0.46143137    -0.02110
C3889       C  0.86894802  0.92968368  0.45932855     0.02880
C3890       C  0.86163726  0.94872640  0.48476025    -0.04990
C3891       C  0.84722151  0.93542068  0.51089623    -0.02090
C3892       C  0.84795770  0.90350768  0.51514094     0.02880
C3893       C  0.86061865  0.88103485  0.43252378     0.37530
C3894       C  0.82926861  0.95379804  0.53196570     0.37520
C3895       C  0.83715106  0.89082362  0.54420905     0.35940
C3896       C  0.87922799  0.94261276  0.43012755     0.35940
N3897       N  0.82847527  0.88083064  0.56745673    -0.38880
N3898       N  0.88740784  0.95268729  0.40673646    -0.38880
N3899       N  0.81321962  0.96762224  0.54794576    -0.38320
N3900       N  0.85582981  0.86923045  0.40866587    -0.38320
C3901       C  0.87166148  0.69954015  0.53359625    -0.04990
C3902       C  0.86192442  0.68179772  0.55887588    -0.02110
C3903       C  0.85874237  0.64994540  0.55523868     0.02880
C3904       C  0.86584278  0.63555474  0.52635207    -0.04990
C3905       C  0.87410658  0.65362729  0.50064860    -0.02090
C3906       C  0.87686511  0.68539591  0.50421840     0.02880
C3907       C  0.85518576  0.69637570  0.58857591     0.37530
C3908       C  0.88208388  0.63947238  0.47096894     0.37520
C3909       C  0.88722716  0.70284828  0.47774828     0.35940
C3910       C  0.84796964  0.63201402  0.58123820     0.35940
N3911       N  0.89609409  0.71507360  0.45578632    -0.38880
N3912       N  0.83932629  0.61769204  0.60194435    -0.38880
N3913       N  0.88855458  0.62824055  0.44736512    -0.38320
N3914       N  0.84980153  0.70809695  0.61223051    -0.38320
C3915       C  0.84719942  0.76818920  0.42576717    -0.04990
C3916       C  0.82699816  0.74334216  0.42196189    -0.02110
C3917       C  0.82186483  0.73020196  0.39163817     0.02880
C3918       C  0.83889780  0.74010780  0.36563965    -0.04990
C3919       C  0.86020952  0.76432667  0.37083189    -0.02090
C3920       C  0.86209776  0.77960285  0.39945660     0.02880
C3921       C  0.81206424  0.73113312  0.44913781     0.37530
C3922       C  0.88233772  0.77454790  0.34833863     0.37520
C3923       C  0.88268590  0.80575520  0.40202836     0.35940
C3924       C  0.79892778  0.70688713  0.38713144     0.35940
N3925       N  0.90059803  0.82507756  0.40229918    -0.38880
N3926       N  0.78050752  0.68832025  0.38349850    -0.38880
N3927       N  0.90136822  0.78551351  0.33359286    -0.38320
N3928       N  0.80021652  0.72143910  0.47095974    -0.38320
C3929       C  0.53952956  0.73711435  0.52670002    -0.04990
C3930       C  0.51540440  0.71642170  0.52934783    -0.02110
C3931       C  0.98997067  0.71850098  0.50907256     0.02880
C3932       C  0.98581153  0.74450403  0.48992778    -0.04990
C3933       C  0.50989654  0.76546709  0.48780687    -0.02090
C3934       C  0.53491042  0.76361211  0.50860857     0.02880
C3935       C  0.51557941  0.69465516  0.55462127     0.37530
C3936       C  0.51042550  0.78709994  0.46243354     0.37520
C3937       C  0.55689618  0.78825899  0.51030788     0.35940
C3938       C  0.96793236  0.69389011  0.50821436     0.35940
N3939       N  0.57416112  0.80811421  0.51187938    -0.38880
N3940       N  0.95084775  0.67385777  0.50761506    -0.38880
N3941       N  0.51179114  0.80343711  0.44138115    -0.38320
N3942       N  0.51476809  0.67820416  0.57562057    -0.38320
C3943       C  0.98498140  0.85155572  0.51552237    -0.04990
C3944       C  0.50076821  0.85921919  0.54367566    -0.02110
C3945       C  0.52695260  0.87814218  0.54300383     0.02880
C3946       C  0.53864018  0.88777726  0.51406485    -0.04990
C3947       C  0.52344313  0.87887032  0.48596708    -0.02090
C3948       C  0.99558173  0.86326475  0.48691004     0.02880
C3949       C  0.98903411  0.84950573  0.57349290     0.37530
C3950       C  0.53610537  0.88553424  0.45555223     0.37520
C3951       C  0.97782286  0.85984813  0.45802758     0.35940
C3952       C  0.54260323  0.88662456  0.57193821     0.35940
N3953       N  0.96378539  0.85763169  0.43492510    -0.38880
N3954       N  0.55519556  0.89338820  0.59498221    -0.38880
N3955       N  0.54555062  0.89046341  0.43093271    -0.38320
N3956       N  0.97983885  0.84242979  0.59763400    -0.38320
C3957       C  0.69489782  0.00391778  0.36284606    -0.04990
C3958       C  0.66672647  0.01431560  0.37402757    -0.02110
C3959       C  0.65372084  0.00060176  0.40048747     0.02880
C3960       C  0.67102754  0.97993884  0.41944043    -0.04990
C3961       C  0.70202827  0.97476328  0.41135061    -0.02090
C3962       C  0.71343633  0.98597906  0.38274799     0.02880
C3963       C  0.64936986  0.03655621  0.35608735     0.37530
C3964       C  0.72176719  0.95588273  0.43066667     0.37520
C3965       C  0.74366000  0.97738127  0.37244030     0.35940
C3966       C  0.62137437  0.00549697  0.40508499     0.35940
N3967       N  0.76774292  0.97052762  0.36412298    -0.38880
N3968       N  0.59523203  0.00875280  0.40678270    -0.38880
N3969       N  0.73768362  0.94086623  0.44597776    -0.38320
N3970       N  0.63550371  0.55436713  0.34196987    -0.38320
C3971       C  0.61250440  0.54858439  0.12140019    -0.04990
C3972       C  0.60794680  0.51852916  0.13153070    -0.02110
C3973       C  0.62409312  0.50703845  0.15789137     0.02880
C3974       C  0.64687094  0.52494676  0.17343150    -0.04990
C3975       C  0.64885841  0.55610535  0.16527468    -0.02090
C3976       C  0.63011390  0.56802742  0.14099995     0.02880
C3977       C  0.58837671  0.99833631  0.11366225     0.37530
C3978       C  0.67062816  0.57615068  0.18089402     0.37520
C3979       C  0.62918185  0.60053614  0.13596397     0.35940
C3980       C  0.61723376  0.97642256  0.16826583     0.35940
N3981       N  0.62820623  0.62669908  0.13348874    -0.38880
N3982       N  0.61161580  0.95201032  0.17632675    -0.38880
N3983       N  0.68795328  0.59227769  0.19320743    -0.38320
N3984       N  0.57295436  0.98135614  0.10013441    -0.38320
C3985       C  0.73495705  0.88778078  0.26911386    -0.04990
C3986       C  0.74664150  0.87517726  0.24085605    -0.02110
C3987       C  0.76106009  0.84649221  0.24059153     0.02880
C3988       C  0.76562265  0.83008527  0.26861605    -0.04990
C3989       C  0.75471101  0.84259575  0.29696627    -0.02090
C3990       C  0.73883952  0.87090720  0.29713947     0.02880
C3991       C  0.74417713  0.89139647  0.21132037     0.37530
C3992       C  0.75910736  0.82585278  0.32581859     0.37520
C3993       C  0.72724953  0.88292282  0.32635010     0.35940
C3994       C  0.77199757  0.83445257  0.21099434     0.35940
N3995       N  0.71792112  0.89251701  0.34965471    -0.38880
N3996       N  0.78029950  0.82545157  0.18703024    -0.38880
N3997       N  0.76263651  0.81238229  0.34879876    -0.38320
N3998       N  0.74276199  0.90397487  0.18759678    -0.38320
C3999       C  0.63499737  0.84109985  0.29438398    -0.04990
C4000       C  0.65975901  0.84559688  0.27416509    -0.02110
C4001       C  0.65748417  0.86889074  0.25181277     0.02880
C4002       C  0.63703259  0.89321702  0.25651462    -0.04990
C4003       C  0.61585539  0.89116628  0.28141750    -0.02090
C4004       C  0.61691187  0.86625130  0.30201359     0.02880
C4005       C  0.68165077  0.82134908  0.26954535     0.37530
C4006       C  0.59117512  0.91299131  0.28408782     0.37520
C4007       C  0.59487999  0.86334841  0.32681630     0.35940
C4008       C  0.67258323  0.86539511  0.22201214     0.35940
N4009       N  0.57718927  0.86083738  0.34648286    -0.38880
N4010       N  0.68355123  0.86189136  0.19775454    -0.38880
N4011       N  0.57103343  0.92992728  0.28584782    -0.38320
N4012       N  0.69952356  0.80258483  0.26471569    -0.38320
C4013       C  0.94245684  0.01400003  0.13857334    -0.04990
C4014       C  0.91169807  0.01491013  0.12880168    -0.02110
C4015       C  0.90016847  0.99236296  0.10806345     0.02880
C4016       C  0.92000849  0.97469638  0.08916799    -0.04990
C4017       C  0.95170152  0.97658231  0.09615494    -0.02090
C4018       C  0.96273508  0.99659923  0.12010445     0.02880
C4019       C  0.89118685  0.53698629  0.14249009     0.37530
C4020       C  0.97192241  0.95360545  0.08372215     0.37520
C4021       C  0.99484185  0.99739518  0.12844337     0.35940
C4022       C  0.86934880  0.98197199  0.11288453     0.35940
N4023       N  0.52020841  0.99872836  0.13613737    -0.38880
N4024       N  0.84562835  0.97185793  0.11801270    -0.38880
N4025       N  0.98701524  0.93389831  0.07468718    -0.38320
N4026       N  0.87479587  0.55484283  0.15305930    -0.38320
C4027       C  0.84253746  0.51425740  0.21387024    -0.04990
C4028       C  0.82586085  0.54048357  0.22331228    -0.02110
C4029       C  0.79405689  0.53846614  0.22999830     0.02880
C4030       C  0.77955054  0.50972337  0.23092592    -0.04990
C4031       C  0.79730454  0.98387559  0.22378429    -0.02090
C4032       C  0.82632451  0.98671685  0.21074643     0.02880
C4033       C  0.84108834  0.56966710  0.22485591     0.37530
C4034       C  0.79010353  0.95468195  0.23694467     0.37520
C4035       C  0.83869181  0.96060082  0.19444633     0.35940
C4036       C  0.77659392  0.56573070  0.23636540     0.35940
N4037       N  0.84702530  0.93940220  0.18081572    -0.38880
N4038       N  0.76261067  0.58753395  0.24136243    -0.38880
N4039       N  0.78792546  0.93131774  0.24891744    -0.38320
N4040       N  0.85347224  0.59287604  0.22607728    -0.38320
C4041       C  0.59255351  0.51777556  0.28226238    -0.04990
C4042       C  0.57279165  0.00490303  0.30463055    -0.02110
C4043       C  0.54073652  0.00911292  0.30235679     0.02880
C4044       C  0.52677556  0.52166244  0.27501144    -0.04990
C4045       C  0.54639568  0.53577910  0.25332111    -0.02090
C4046       C  0.57865637  0.53556337  0.25812107     0.02880
C4047       C  0.58476641  0.98602620  0.32972277     0.37530
C4048       C  0.53385450  0.55038094  0.22557790     0.37520
C4049       C  0.59705722  0.55453012  0.23830087     0.35940
C4050       C  0.52270217  0.00181820  0.32946749     0.35940
N4051       N  0.61119830  0.57064760  0.22294371    -0.38880
N4052       N  0.50932665  0.99661173  0.35194574    -0.38880
N4053       N  0.52406741  0.56194407  0.20329279    -0.38320
N4054       N  0.59391933  0.96991782  0.34903755    -0.38320
C4055       C  0.90817267  0.52287133  0.33749355    -0.04990
C4056       C  0.88612267  0.54516108  0.34566339    -0.02110
C4057       C  0.87955659  0.55147517  0.37794783     0.02880
C4058       C  0.89738190  0.53812384  0.40225380    -0.04990
C4059       C  0.92097715  0.51761035  0.39302117    -0.02090
C4060       C  0.92329975  0.50740351  0.36195966     0.02880
C4061       C  0.86920313  0.56039837  0.32098977     0.37530
C4062       C  0.94525666  0.00788293  0.41408730     0.37520
C4063       C  0.94115676  0.98009979  0.35592733     0.35940
C4064       C  0.85581570  0.57290741  0.38600931     0.35940
N4065       N  0.95469437  0.95775839  0.35226265    -0.38880
N4066       N  0.83682573  0.59004852  0.39249953    -0.38880
N4067       N  0.96607617  0.00033109  0.42909844    -0.38320
N4068       N  0.85559991  0.57257017  0.30128592    -0.38320
C4069       C  0.99317687  0.90105614  0.22879176    -0.04990
C4070       C  0.98835955  0.87932861  0.25239276    -0.02110
C4071       C  0.50254642  0.85065832  0.25089482     0.02880
C4072       C  0.52554759  0.84455326  0.22851818    -0.04990
C4073       C  0.52874620  0.86561649  0.20369515    -0.02090
C4074       C  0.51203887  0.89335751  0.20353573     0.02880
C4075       C  0.96893129  0.88603262  0.27884699     0.37530
C4076       C  0.54812744  0.85933772  0.17753705     0.37520
C4077       C  0.51502257  0.91447660  0.17781160     0.35940
C4078       C  0.99230205  0.82723731  0.27221060     0.35940
N4079       N  0.51740661  0.93110020  0.15710679    -0.38880
N4080       N  0.98350849  0.80907260  0.28935060    -0.38880
N4081       N  0.56221948  0.85656895  0.15507286    -0.38320
N4082       N  0.95413600  0.89035175  0.30067875    -0.38320
C4083       C  0.86372935  0.83840561  0.24023406    -0.04990
C4084       C  0.86434221  0.85525230  0.26913228    -0.02110
C4085       C  0.87518808  0.88518534  0.27009077     0.02880
C4086       C  0.88707021  0.89801884  0.24311962    -0.04990
C4087       C  0.88676887  0.88141865  0.21438765    -0.02090
C4088       C  0.87402703  0.85218701  0.21289763     0.02880
C4089       C  0.85408112  0.84328667  0.29866264     0.37530
C4090       C  0.90133487  0.89305943  0.18659751     0.37520
C4091       C  0.87301550  0.83558721  0.18348892     0.35940
C4092       C  0.87416163  0.90296493  0.29902926     0.35940
N4093       N  0.87203658  0.82229902  0.16005681    -0.38880
N4094       N  0.87339998  0.91709689  0.32199346    -0.38880
N4095       N  0.91287110  0.90158859  0.16407767    -0.38320
N4096       N  0.84638857  0.83623867  0.32342523    -0.38320
loop_ 
_geom_bond_atom_site_label_1 
_geom_bond_atom_site_label_2 
_geom_bond_distance 
_geom_bond_site_symmetry_2 
_ccdc_geom_bond_type 
O1           Al9   1.942       .  S
O1         C1040   1.275       .  A
C2            O3   1.267       .  A
C2         O1036   1.280   1_545  A
C2          C955   1.510       .  S
O3           Al5   1.902       .  S
O4           Al5   1.989       .  S
O4            C6   1.276       .  A
Al5          O13   2.027       .  S
Al5          O15   1.944       .  S
Al5        O1038   1.788   1_545  S
C6         O1043   1.260   1_545  A
C6          C983   1.507       .  S
O7           Al9   1.928       .  S
O7           C17   1.265       .  A
O8          Al18   1.941       .  S
O8           C21   1.265       .  A
Al9          O22   1.893       .  S
Al9          O19   1.899       .  S
Al9          O14   1.748       .  S
O10         Al18   1.826       .  S
O10          C17   1.242       .  A
O11         Al18   1.860       .  S
O11        C1044   1.242       .  A
O12         Al18   1.972       .  S
O12        C1026   1.280       .  A
O13          C20   1.277       .  A
O14         Al18   1.745       .  S
O14       Al1029   1.788       .  S
O15          C16   1.280       .  A
C16        O1025   1.275   1_545  A
C16        C3020   1.528       .  S
C17        C1014   1.464       .  S
O19        C1030   1.260       .  A
C20        O1035   1.242   1_545  A
C20        C1965   1.504       .  S
C21          O22   1.259       .  A
C21         C997   1.488       .  S
O23         Al31   1.881       .  S
O23          C38   1.261       .  A
C24          O34   1.263       .  A
C24        O1049   1.270   1_545  A
C24         C969   1.529       .  S
O25         Al27   1.946       .  S
O25        C1048   1.270       .  A
O26         Al27   1.864       .  S
O26          C28   1.242       .  A
Al27         O35   1.864       .  S
Al27         O37   1.989       .  S
Al27         O36   1.752       .  S
C28          O41   1.268       .  A
C28         C930   1.492       .  S
O29         Al31   1.883       .  S
O29        C1063   1.262       .  A
O30         Al40   1.944       .  S
O30          C43   1.274       .  A
Al31         O44   1.938       .  S
Al31         O41   1.968       .  S
Al31         O36   1.769       .  S
O32         Al40   1.946       .  S
O32          C39   1.273       .  A
O33         Al40   1.975       .  S
O33          C42   1.275   1_545  A
O34         Al40   1.919       .  S
O35        C1066   1.254       .  A
O36       Al1064   1.770       .  S
O37          C38   1.275       .  A
C38         C913   1.513       .  S
C39        O1053   1.262   1_545  A
C39         C902   1.511       .  S
Al40       O1060   1.770   1_545  S
C42        O1059   1.254       .  A
C42        C1909   1.486   1_565  S
C43        O1068   1.272   1_545  A
C43         C958   1.509       .  S
O44        C1067   1.272       .  A
O45         Al53   1.883       .  S
O45          C60   1.261       .  A
C46          O56   1.255       .  A
C46          O47   1.269       .  A
C46         C829   1.485       .  S
O47         Al49   1.954       .  S
O48         Al49   1.857       .  S
O48          C50   1.243       .  A
Al49         O57   1.832       .  S
Al49         O59   1.980       .  S
Al49         O58   1.716       .  S
C50          O63   1.268       .  A
C50         C860   1.483       .  S
O51         Al53   1.842       .  S
O51          C61   1.260       .  A
O52         Al62   1.934       .  S
O52          C65   1.277       .  A
Al53         O66   1.924       .  S
Al53         O63   1.977       .  S
Al53         O58   1.738       .  S
O54         Al62   1.986       .  S
O54          C61   1.280       .  A
O55         Al62   2.036       .  S
O55          C64   1.285       .  A
O56         Al62   1.884       .  S
O57          C64   1.238       .  A
O58         Al62   1.770       .  S
O59          C60   1.275       .  A
C60         C871   1.491       .  S
C61         C843   1.480       .  S
C64         C801   1.505       .  S
C65          O66   1.268       .  A
C65         C815   1.509       .  S
O67         Al75   1.916       .  S
O67          C82   1.266       .  A
C68          O78   1.268       .  A
C68        O1093   1.255       .  A
C68         C818   1.498       .  S
O69         Al71   1.888       .  S
O69        C1092   1.255   1_545  A
O70         Al71   1.984       .  S
O70          C72   1.283       .  A
Al71         O79   2.048       .  S
Al71         O81   1.913       .  S
Al71         O80   1.764       .  S
C72          O85   1.262       .  A
C72         C759   1.502       .  S
O73         Al75   1.971       .  S
O73          C83   1.269       .  A
O74         Al84   1.979       .  S
O74          C87   1.275       .  A
Al75         O88   1.906       .  S
Al75         O85   1.867       .  S
Al75         O80   1.777       .  S
O76         Al84   1.861   1_565  S
O76          C83   1.241   1_565  A
O77         Al84   1.862       .  S
O77          C86   1.248       .  A
O78       Al1108   1.945       .  S
O79          C86   1.287       .  A
O80         Al84   1.725       .  S
O81          C82   1.272       .  A
C82         C832   1.490       .  S
C83         C787   1.485   1_545  S
Al84       O1102   1.945   1_545  S
C86         C986   1.524       .  S
C87          O88   1.266       .  A
C87         C773   1.503       .  S
O89         Al97   1.944       .  S
O89         C104   1.273       .  A
C90         O100   1.278       .  A
C90          O91   1.266       .  A
C90         C689   1.517       .  S
O91         Al93   1.915       .  S
O92         Al93   1.948       .  S
O92          C94   1.271       .  A
Al93        O101   1.976       .  S
Al93        O103   1.927       .  S
Al93        O102   1.779       .  S
C94         O107   1.262       .  A
C94         C717   1.493       .  S
O95         Al97   1.936       .  S
O95         C105   1.264       .  A
O96        Al106   1.967       .  S
O96         C109   1.272       .  A
Al97        O110   1.904       .  S
Al97        O107   1.904       .  S
Al97        O102   1.771       .  S
O98        Al106   1.839       .  S
O98         C105   1.240       .  A
O99        Al106   1.869       .  S
O99         C108   1.249       .  A
O100       Al106   1.974       .  S
O101        C108   1.271       .  A
O102       Al106   1.744       .  S
O103        C104   1.273       .  A
C104        C703   1.490       .  S
C105        C748   1.481       .  S
C108        C675   1.489       .  S
C109        O110   1.266       .  A
C109        C731   1.506       .  S
O111       Al119   1.878       .  S
O111        C126   1.264       .  A
C112        O122   1.258       .  A
C112        O113   1.273       .  A
C112        C706   1.502       .  S
O113       Al115   1.957       .  S
O114       Al115   1.843       .  S
O114        C116   1.241       .  A
Al115       O123   1.850       .  S
Al115       O125   1.993       .  S
Al115       O124   1.757       .  S
C116        O129   1.261       .  A
C116        C664   1.485       .  S
O117       Al119   1.891       .  S
O117        C127   1.266       .  A
O118       Al128   1.939       .  S
O118        C131   1.270       .  A
Al119       O132   1.925       .  S
Al119       O129   1.955       .  S
Al119       O124   1.766       .  S
O120       Al128   1.937       .  S
O120        C127   1.270       .  A
O121       Al128   1.949       .  S
O121        C130   1.271       .  A
O122       Al128   1.901       .  S
O123        C130   1.249       .  A
O124       Al128   1.782       .  S
O125        C126   1.278       .  A
C126        C647   1.522       .  S
C127        C804   1.470       .  S
C130        C633   1.482       .  S
C131        O132   1.267       .  A
C131       C2740   1.495       .  S
O133       Al141   1.893       .  S
O133        C148   1.260       .  A
C134        O144   1.267       .  A
C134        O135   1.273       .  A
C134        C577   1.488       .  S
O135       Al137   1.946       .  S
O136       Al137   1.938   1_554  S
O136        C138   1.259       .  A
Al137       O145   1.952       .  S
Al137       O147   1.943       .  S
Al137       O146   1.811       .  S
C138        O151   1.258       .  A
C138        C594   1.497       .  S
O139       Al141   1.926       .  S
O139        C149   1.256       .  A
O140       Al150   1.945       .  S
O140        C153   1.279       .  A
Al141       O154   1.906       .  S
Al141       O151   1.870       .  S
Al141       O146   1.786   1_554  S
O142       Al150   1.803       .  S
O142        C149   1.238   1_556  A
O143       Al150   1.836       .  S
O143        C152   1.240       .  A
O144       Al150   1.893       .  S
O145        C152   1.260       .  A
O146       Al150   1.784       .  S
O147        C148   1.267   1_556  A
C148        C566   1.499       .  S
C149        C605   1.460       .  S
C152        C720   1.481       .  S
C153        O154   1.267   1_556  A
C153        C622   1.513       .  S
O155       Al163   1.906   1_554  S
O155        C170   1.266       .  A
C156        O157   1.285       .  A
C156       O1190   1.259       .  A
C156        C563   1.507       .  S
O157      Al1183   1.988       .  S
O158       Al159   1.830       .  S
O158        C160   1.244       .  A
Al159       O167   1.855       .  S
Al159       O169   1.973       .  S
Al159      O1181   1.988   1_545  S
Al159       O168   1.739       .  S
C160        O173   1.260   1_554  A
C160        C549   1.459       .  S
O161       Al163   1.869       .  S
O161        C171   1.263       .  A
O162       Al172   1.933       .  S
O162        C175   1.278   1_554  A
Al163       O176   1.922       .  S
Al163       O173   1.921       .  S
Al163       O168   1.749   1_556  S
O164       Al172   1.975   1_556  S
O164        C171   1.274       .  A
O165       Al172   2.009       .  S
O165        C174   1.274       .  A
O166       Al172   1.882       .  S
O166       C1180   1.259   1_545  A
O167        C174   1.241       .  A
O168       Al172   1.793       .  S
O169        C170   1.274       .  A
C170        C538   1.506       .  S
C171        C521   1.496       .  S
C174        C899   1.498       .  S
C175        O176   1.268       .  A
C175        C580   1.488       .  S
O177       Al185   1.936       .  S
O177        C192   1.268       .  A
C178        O188   1.272       .  A
C178        O179   1.256       .  A
C178        C507   1.516       .  S
O179       Al181   1.881       .  S
O180       Al181   1.955       .  S
O180        C182   1.274       .  A
Al181       O189   1.986       .  S
Al181       O191   1.895       .  S
Al181       O190   1.771       .  S
C182        O195   1.260       .  A
C182        C678   1.497       .  S
O183       Al185   1.959       .  S
O183        C193   1.266       .  A
O184       Al194   1.984       .  S
O184        C197   1.278       .  A
Al185       O198   1.896       .  S
Al185       O195   1.873       .  S
Al185       O190   1.776       .  S
O186       Al194   1.848       .  S
O186        C193   1.244       .  A
O187       Al194   1.889       .  S
O187        C196   1.257       .  A
O188       Al194   1.943       .  S
O189        C196   1.277       .  A
O190       Al194   1.745       .  S
O191        C192   1.268       .  A
C192        C493   1.474       .  S
C193        C857   1.477       .  S
C196        C482   1.498       .  S
C197        O198   1.265       .  A
C197        C776   1.510       .  S
O199       Al207   1.880       .  S
O199        C214   1.263       .  A
C200       O1234   1.255   1_545  A
C200       O1225   1.271   1_545  A
C200        C496   1.486       .  S
O201       Al203   1.937       .  S
O201       C1224   1.271       .  A
O202       Al203   1.835       .  S
O202        C204   1.233       .  A
Al203       O211   1.853       .  S
Al203       O213   1.982       .  S
Al203       O212   1.730       .  S
C204        O217   1.265       .  A
C204        C790   1.495       .  S
O205       Al207   1.885       .  S
O205        C215   1.269       .  A
O206       Al216   1.945       .  S
O206        C219   1.277       .  A
Al207       O220   1.917       .  S
Al207       O217   1.990       .  S
Al207       O212   1.777       .  S
O208       Al216   1.978       .  S
O208        C215   1.284       .  A
O209       Al216   2.017       .  S
O209        C218   1.278       .  A
O210       Al216   1.881       .  S
O210       C1224   1.255       .  A
O211        C218   1.245       .  A
O212       Al216   1.768       .  S
O213        C214   1.279       .  A
C214        C874   1.490       .  S
C215        C888   1.516       .  S
C218        C465   1.499       .  S
C219        O220   1.264       .  A
C219        C510   1.514       .  S
O221      Al1253   1.935       .  S
O221        C236   1.268       .  A
C222        O223   1.254       .  A
C222       O1256   1.264       .  A
C222        C426   1.507       .  S
O223       Al225   1.883       .  S
O224       Al225   1.967       .  S
O224        C226   1.276       .  A
Al225       O233   2.001       .  S
Al225       O235   1.889       .  S
Al225      O1258   1.771       .  S
C226        O239   1.262       .  A
C226        C451   1.522       .  S
O227       Al229   1.945       .  S
O227        C237   1.269       .  A
O228       Al238   1.945       .  S
O228        C241   1.267       .  A
Al229       O242   1.928       .  S
Al229      O1245   1.935   1_545  S
Al229      O1263   1.891   1_545  S
Al229       O234   1.773       .  S
O230       Al238   1.859       .  S
O230        C237   1.250       .  A
O231       Al238   1.860       .  S
O231       C1264   1.253   1_545  A
O232       Al238   1.929   1_565  S
O232       C1246   1.264       .  A
O233        C240   1.282       .  A
O234       Al238   1.755       .  S
O234      Al1249   1.771   1_545  S
O235        C236   1.264       .  A
C236        C437   1.483       .  S
C237        C661   1.479       .  S
O239      Al1253   1.891       .  S
C240       O1255   1.253       .  A
C240        C762   1.500       .  S
C241        O242   1.270       .  A
C241        C734   1.513       .  S
O243       Al251   1.889       .  S
O243        C258   1.261       .  A
C244        O254   1.255       .  A
C244       O1269   1.272       .  A
C244        C440   1.485       .  S
O245       Al247   1.951   1_565  S
O245       C1268   1.272       .  A
O246       Al247   1.840       .  S
O246        C248   1.236       .  A
Al247       O255   1.855       .  S
Al247       O257   1.996       .  S
Al247      O1280   1.733   1_545  S
C248        O261   1.265       .  A
C248        C745   1.465       .  S
O249      Al1275   1.844       .  S
O249        C259   1.259       .  A
O250       Al260   1.939       .  S
O250        C263   1.278       .  A
Al251       O261   1.939       .  S
Al251      O1273   1.844   1_545  S
Al251      O1288   1.911   1_545  S
Al251      O1280   1.744   1_545  S
O252       Al260   2.009       .  S
O252        C259   1.283       .  A
O253       Al260   2.046       .  S
O253        C262   1.283       .  A
O254       Al260   1.880       .  S
O255       C1286   1.244   1_545  A
O256       Al260   1.780       .  S
O256      Al1271   1.733       .  S
O256      Al1275   1.744       .  S
O257        C258   1.278       .  A
C258        C650   1.501       .  S
C259        C468   1.505       .  S
C262       O1279   1.244       .  A
C262        C524   1.505       .  S
C263        O264   1.265       .  A
C263       C2471   1.507   1_455  S
O264      Al1275   1.911       .  S
O265       Al273   1.871       .  S
O265        C280   1.256       .  A
C266        O276   1.274       .  A
C266        O267   1.275       .  A
C266        C398   1.473       .  S
O267       Al269   1.936       .  S
O268       Al269   1.976       .  S
O268        C270   1.277       .  A
Al269       O277   2.049       .  S
Al269       O279   1.913       .  S
Al269       O278   1.771       .  S
C270        O283   1.255       .  A
C270        C479   1.517       .  S
O271       Al273   1.928       .  S
O271        C281   1.251       .  A
O272       Al282   1.967       .  S
O272        C285   1.286       .  A
Al273       O286   1.915       .  S
Al273       O283   1.865       .  S
Al273       O278   1.764       .  S
O274       Al282   1.809       .  S
O274        C281   1.237       .  A
O275       Al282   1.855       .  S
O275        C284   1.232       .  A
O276       Al282   1.895       .  S
O277        C284   1.281       .  A
O278       Al282   1.757       .  S
O279        C280   1.263       .  A
C280       C2457   1.487   1_455  S
C281        C927   1.456       .  S
C284        C591   1.522       .  S
C285        O286   1.275       .  A
C285       C1000   1.513       .  S
O287       Al295   1.911       .  S
O287        C302   1.265       .  A
C288        O298   1.251       .  A
C288        O289   1.271       .  A
C288        C412   1.494       .  S
O289       Al291   1.981       .  S
O290       Al291   1.838       .  S
O290        C292   1.241       .  A
Al291       O299   1.837       .  S
Al291       O301   1.960       .  S
Al291       O300   1.706       .  S
C292        O305   1.270       .  A
C292       C1011   1.481       .  S
O293       Al295   1.876       .  S
O293        C303   1.266       .  A
O294       Al304   1.895       .  S
O294        C307   1.271       .  A
Al295       O308   1.923       .  S
Al295       O305   1.977       .  S
Al295       O300   1.764       .  S
O296       Al304   1.957       .  S
O296        C303   1.280       .  A
O297       Al304   2.047       .  S
O297        C306   1.279       .  A
O298       Al304   1.870       .  S
O299        C306   1.235       .  A
O300       Al304   1.789       .  S
O301        C302   1.267       .  A
C302        C916   1.498       .  S
C303        C381   1.491       .  S
C306        C846   1.503       .  S
C307        O308   1.271       .  A
C307        C395   1.471       .  S
O309       Al317   1.905   1_554  S
O309        C324   1.269       .  A
C310        O320   1.260       .  A
C310        O311   1.269       .  A
C310        C370   1.517       .  S
O311       Al313   1.934       .  S
O312       Al313   1.864       .  S
O312        C314   1.243   1_554  A
Al313       O321   1.849       .  S
Al313       O323   1.970       .  S
Al313       O322   1.751       .  S
C314        O327   1.265       .  A
C314        C608   1.497   1_556  S
O315       Al317   1.898       .  S
O315        C325   1.268       .  A
O316       Al326   1.916       .  S
O316        C329   1.269   1_554  A
Al317       O330   1.937       .  S
Al317       O327   1.963       .  S
Al317       O322   1.777   1_556  S
O318       Al326   1.937   1_556  S
O318        C325   1.271       .  A
O319       Al326   1.969       .  S
O319        C328   1.273       .  A
O320       Al326   1.907       .  S
O321        C328   1.250       .  A
O322       Al326   1.771       .  S
O323        C324   1.274       .  A
C324        C535   1.518       .  S
C325        C636   1.494       .  S
C328        C384   1.481       .  S
C329        O330   1.267       .  A
C329        C353   1.486       .  S
O331       Al339   1.920       .  S
O331        C346   1.271       .  A
C332       O1366   1.281       .  A
C332       O1357   1.260       .  A
C332        C356   1.500   1_565  S
O333       Al335   1.894       .  S
O333       C1356   1.260       .  A
O334       Al335   1.973   1_554  S
O334        C336   1.276       .  A
Al335       O343   2.034       .  S
Al335       O345   1.945   1_556  S
Al335       O344   1.787       .  S
C336        O349   1.263       .  A
C336        C944   1.526       .  S
O337       Al339   1.942       .  S
O337        C347   1.268       .  A
O338       Al348   1.972       .  S
O338        C351   1.272       .  A
Al339       O352   1.900       .  S
Al339       O349   1.894       .  S
Al339       O344   1.759   1_554  S
O340       Al348   1.829       .  S
O340        C347   1.243   1_556  A
O341       Al348   1.855       .  S
O341        C350   1.242       .  A
O342       Al348   1.984       .  S
O342       C1356   1.281       .  A
O343        C350   1.278       .  A
O344       Al348   1.750       .  S
O345        C346   1.281       .  A
C346        C367   1.523       .  S
C347        C552   1.465       .  S
C350        C454   1.510       .  S
C351        O352   1.261   1_556  A
C351        C619   1.501       .  S
C353        C354   1.412       .  A
C353        C358   1.404   1_556  A
C354        C355   1.419       .  A
C354        C359   1.445       .  S
C355        C356   1.412       .  A
C355        C362   1.443       .  S
C356        C357   1.413   1_556  A
C357        C358   1.407       .  A
C357        C360   1.439       .  S
C358        C361   1.450       .  S
C359        N366   1.156       .  T
C360        N365   1.153       .  T
C361        N363   1.155       .  T
C362        N364   1.157       .  T
C367        C368   1.429       .  A
C367        C372   1.419       .  A
C368        C369   1.417       .  A
C368        C373   1.452       .  S
C369        C370   1.413       .  A
C369        C376   1.451       .  S
C370        C371   1.423       .  A
C371        C372   1.422       .  A
C371        C374   1.448   1_554  S
C372        C375   1.451   1_554  S
C373        N380   1.157       .  T
C374        N379   1.157       .  T
C375        N377   1.158       .  T
C376        N378   1.157       .  T
C381        C382   1.411       .  A
C381        C386   1.421       .  A
C382        C383   1.411       .  A
C382        C387   1.451       .  S
C383        C384   1.415       .  A
C383        C390   1.447       .  S
C384        C385   1.409       .  A
C385        C386   1.411       .  A
C385        C388   1.451       .  S
C386        C389   1.453       .  S
C387        N394   1.157       .  T
C388        N393   1.157       .  T
C389        N391   1.157       .  T
C390        N392   1.156       .  T
C395        C396   1.413       .  A
C395        C400   1.410       .  A
C396        C397   1.408       .  A
C396        C401   1.451       .  S
C397        C398   1.411       .  A
C397        C404   1.451       .  S
C398        C399   1.410       .  A
C399        C400   1.403       .  A
C399        C402   1.446       .  S
C400        C403   1.453       .  S
C401        N408   1.157       .  T
C402        N407   1.154       .  T
C403        N405   1.157       .  T
C404        N406   1.157       .  T
C409       C2328   1.487       .  S
C409        C410   1.419       .  A
C409        C414   1.412       .  A
C410        C411   1.409       .  A
C410        C415   1.452       .  S
C411        C412   1.406       .  A
C411        C418   1.448       .  S
C412        C413   1.415       .  A
C413        C414   1.411       .  A
C413        C416   1.446       .  S
C414        C417   1.451       .  S
C415       N2470   1.157       .  T
C416        N421   1.156       .  T
C417        N419   1.157       .  T
C418        N420   1.158       .  T
N422       C2463   1.157   1_455  T
C423       C2311   1.507       .  S
C423        C424   1.429       .  A
C423        C428   1.415       .  A
C424        C425   1.409       .  A
C424       C1453   1.456       .  S
C425        C426   1.417       .  A
C425       C1456   1.456       .  S
C426        C427   1.425       .  A
C427        C428   1.417       .  A
C427        C430   1.453       .  S
C428        C431   1.452       .  S
C429       C1448   1.456   1_545  S
C429       N2484   1.158       .  T
C430        N435   1.157       .  T
C431        N433   1.158       .  T
C432       C1449   1.456   1_545  S
C432        N434   1.158       .  T
N436       C2477   1.158   1_455  T
C437        C438   1.406       .  A
C437        C442   1.413       .  A
C438        C439   1.404       .  A
C438        C443   1.449       .  S
C439        C440   1.414       .  A
C439        C446   1.448       .  S
C440        C441   1.412       .  A
C441        C442   1.417       .  A
C441        C444   1.449       .  S
C442        C445   1.448       .  S
C443        N450   1.155       .  T
C444        N449   1.158       .  T
C445        N447   1.157       .  T
C446        N448   1.156       .  T
C451        C452   1.428       .  A
C451        C456   1.420       .  A
C452        C453   1.419       .  A
C452       C1481   1.452       .  S
C453        C454   1.402       .  A
C453        C460   1.437       .  S
C454        C455   1.411       .  A
C455        C456   1.422       .  A
C455        C458   1.440       .  S
C456        C459   1.448       .  S
C457       C1476   1.452   1_545  S
C457        N464   1.158       .  T
C458        N463   1.154       .  T
C459        N461   1.157       .  T
C460       N1486   1.153       .  T
N462       C1484   1.153       .  T
C465        C466   1.411       .  A
C465        C470   1.419       .  A
C466        C467   1.397       .  A
C466       C1495   1.442       .  S
C467        C468   1.413       .  A
C467       C1498   1.457       .  S
C468        C469   1.418       .  A
C469        C470   1.432       .  A
C469        C472   1.444       .  S
C470        C473   1.446       .  S
C471       C1490   1.442   1_545  S
C471        N478   1.156       .  T
C472        N477   1.156       .  T
C473        N475   1.157       .  T
C474       C1491   1.457   1_545  S
C474        N476   1.158       .  T
C479        C480   1.430       .  A
C479        C484   1.419       .  A
C480        C481   1.405       .  A
C480        C485   1.451       .  S
C481        C482   1.400       .  A
C481        C488   1.451       .  S
C482        C483   1.417       .  A
C483        C484   1.429       .  A
C483        C486   1.445       .  S
C484        C487   1.448       .  S
C485        N492   1.157       .  T
C486        N491   1.157       .  T
C487        N489   1.157       .  T
C488        N490   1.157       .  T
C493        C494   1.411       .  A
C493        C498   1.403       .  A
C494        C495   1.418       .  A
C494        C499   1.448       .  S
C495        C496   1.415       .  A
C495        C502   1.449       .  S
C496        C497   1.412       .  A
C497        C498   1.400       .  A
C497        C500   1.440       .  S
C498        C501   1.453       .  S
C499        N506   1.157       .  T
C500        N505   1.154       .  T
C501        N503   1.155       .  T
C502        N504   1.157       .  T
C507        C508   1.417       .  A
C507        C512   1.430       .  A
C508        C509   1.411       .  A
C508        C513   1.453       .  S
C509        C510   1.426       .  A
C509        C516   1.451       .  S
C510        C511   1.414       .  A
C511        C512   1.420       .  A
C511        C514   1.452       .  S
C512        C515   1.451       .  S
C513        N520   1.157       .  T
C514        N519   1.158       .  T
C515        N517   1.157       .  T
C516        N518   1.157       .  T
C521        C522   1.420   1_545  A
C521        C526   1.402       .  A
C522       C1547   1.433       .  A
C522       C1551   1.446       .  S
C523        C524   1.421       .  A
C523       C1546   1.433       .  A
C523        C530   1.446       .  S
C524       C1549   1.419       .  A
C525        C526   1.391   1_565  A
C525       C1548   1.419       .  A
C525        C528   1.438       .  S
C526        C529   1.458       .  S
C527       C1546   1.446       .  S
C527        N534   1.157       .  T
C528        N533   1.156       .  T
C529        N531   1.157       .  T
C530        N532   1.157       .  T
C535        C536   1.420   1_554  A
C535        C540   1.425       .  A
C536        C537   1.413       .  A
C536        C541   1.454       .  S
C537        C538   1.419   1_556  A
C537        C544   1.451       .  S
C538        C539   1.413       .  A
C539        C540   1.426       .  A
C539        C542   1.449       .  S
C540        C543   1.450       .  S
C541        N548   1.158       .  T
C542        N547   1.157       .  T
C543        N545   1.157       .  T
C544        N546   1.157       .  T
C549        C554   1.420       .  A
C549       C1574   1.401   1_554  A
C550        C551   1.400       .  A
C550       C1573   1.401   1_556  A
C550        C555   1.454       .  S
C551        C552   1.426   1_556  A
C551        C558   1.452       .  S
C552       C1577   1.398       .  A
C553        C554   1.395   1_565  A
C553       C1576   1.398       .  A
C553        C556   1.447   1_565  S
C554        C557   1.454       .  S
C555        N562   1.157       .  T
C556        N561   1.155       .  T
C557        N559   1.158       .  T
C558        N560   1.158       .  T
C563        C564   1.412       .  A
C563        C568   1.416       .  A
C564        C565   1.410       .  A
C564        C569   1.445   1_554  S
C565        C566   1.408       .  A
C565        C572   1.445   1_554  S
C566        C567   1.414       .  A
C567        C568   1.425       .  A
C567        C570   1.447       .  S
C568        C571   1.443       .  S
C569        N576   1.156       .  T
C570        N575   1.157       .  T
C571        N573   1.156       .  T
C572        N574   1.154       .  T
C577        C578   1.411       .  A
C577        C582   1.414   1_556  A
C578        C579   1.418       .  A
C578        C583   1.448       .  S
C579        C580   1.416       .  A
C579        C586   1.450       .  S
C580        C581   1.408   1_556  A
C581        C582   1.409       .  A
C581        C584   1.447       .  S
C582        C585   1.451       .  S
C583        N590   1.157       .  T
C584        N589   1.155       .  T
C585        N587   1.156       .  T
C586        N588   1.157       .  T
C591        C592   1.441       .  A
C591        C596   1.420       .  A
C592        C593   1.397       .  A
C592        C597   1.453       .  S
C593        C594   1.395       .  A
C593        C600   1.461       .  S
C594        C595   1.418       .  A
C595        C596   1.436       .  A
C595        C598   1.445       .  S
C596        C599   1.446       .  S
C597        N604   1.158       .  T
C598        N603   1.157       .  T
C599        N601   1.157       .  T
C600        N602   1.157       .  T
C605        C606   1.405       .  A
C605        C610   1.410       .  A
C606        C607   1.410       .  A
C606        C611   1.451       .  S
C607        C608   1.423       .  A
C607        C614   1.453       .  S
C608        C609   1.416   1_554  A
C609        C610   1.408   1_556  A
C609        C612   1.450       .  S
C610        C613   1.450       .  S
C611        N618   1.157       .  T
C612        N617   1.157       .  T
C613        N615   1.157       .  T
C614        N616   1.158       .  T
C619        C620   1.413       .  A
C619        C624   1.413   1_556  A
C620        C621   1.424       .  A
C620        C625   1.442       .  S
C621        C622   1.419       .  A
C621        C628   1.450       .  S
C622        C623   1.425   1_556  A
C623        C624   1.411       .  A
C623        C626   1.455       .  S
C624        C627   1.452       .  S
C625        N632   1.154       .  T
C626        N631   1.158       .  T
C627        N629   1.157       .  T
C628        N630   1.157       .  T
C633        C634   1.401       .  A
C633        C638   1.409       .  A
C634        C635   1.409       .  A
C634        C639   1.439       .  S
C635        C636   1.418       .  A
C635        C642   1.451       .  S
C636        C637   1.418       .  A
C637        C638   1.411       .  A
C637        C640   1.448       .  S
C638        C641   1.450       .  S
C639        N646   1.153       .  T
C640        N645   1.157       .  T
C641        N643   1.157       .  T
C642        N644   1.158       .  T
C647        C648   1.424       .  A
C647       C2700   1.428       .  A
C648       C2697   1.427       .  A
C648        C653   1.449       .  S
C649        C650   1.413       .  A
C649       C2696   1.427   1_455  A
C649       C2704   1.449       .  S
C650        C651   1.412       .  A
C651        C652   1.411       .  A
C651        C654   1.453       .  S
C652       C2695   1.428   1_455  A
C652        C655   1.455       .  S
C653        N660   1.158       .  T
C654        N659   1.157       .  T
C655        N657   1.158       .  T
C656       C2697   1.449       .  S
C656        N658   1.157       .  T
C661        C662   1.414       .  A
C661        C666   1.406       .  A
C662        C663   1.406       .  A
C662        C667   1.452       .  S
C663        C664   1.414       .  A
C663        C670   1.449       .  S
C664        C665   1.418       .  A
C665        C666   1.401       .  A
C665        C668   1.451       .  S
C666        C669   1.450       .  S
C667        N674   1.157       .  T
C668        N673   1.156       .  T
C669        N671   1.157       .  T
C670        N672   1.157       .  T
C675        C676   1.409       .  A
C675        C680   1.414       .  A
C676        C677   1.412       .  A
C676        C681   1.449       .  S
C677        C678   1.421       .  A
C677        C684   1.452       .  S
C678        C679   1.413       .  A
C679        C680   1.413       .  A
C679        C682   1.450       .  S
C680        C683   1.447       .  S
C681        N688   1.157       .  T
C682        N687   1.157       .  T
C683        N685   1.157       .  T
C684        N686   1.157       .  T
C689        C690   1.416       .  A
C689        C694   1.423       .  A
C690        C691   1.404       .  A
C690        C695   1.438       .  S
C691        C692   1.399       .  A
C691        C698   1.447       .  S
C692       C2179   1.495   1_455  S
C692        C693   1.412       .  A
C693        C694   1.429       .  A
C693        C696   1.448       .  S
C694        C697   1.442       .  S
C695        N702   1.155       .  T
C696        N701   1.157       .  T
C697        N699   1.155       .  T
C698        N700   1.156       .  T
C703        C704   1.405       .  A
C703        C708   1.406       .  A
C704        C705   1.411       .  A
C704        C709   1.447       .  S
C705        C706   1.419       .  A
C705        C712   1.448       .  S
C706        C707   1.416       .  A
C707        C708   1.420       .  A
C707        C710   1.441       .  S
C708        C711   1.446       .  S
C709        N716   1.155       .  T
C710        N715   1.155       .  T
C711        N713   1.157       .  T
C712        N714   1.157       .  T
C717        C718   1.406       .  A
C717        C722   1.416       .  A
C718        C719   1.408       .  A
C718        C723   1.445       .  S
C719        C720   1.413       .  A
C719        C726   1.447       .  S
C720        C721   1.409       .  A
C721        C722   1.418       .  A
C721        C724   1.449       .  S
C722        C725   1.445       .  S
C723        N730   1.154       .  T
C724        N729   1.157       .  T
C725        N727   1.155       .  T
C726        N728   1.155       .  T
C731        C732   1.419       .  A
C731        C736   1.413       .  A
C732        C733   1.415       .  A
C732        C737   1.450       .  S
C733        C734   1.416       .  A
C733        C740   1.452       .  S
C734        C735   1.424       .  A
C735        C736   1.423       .  A
C735        C738   1.450       .  S
C736        C739   1.450       .  S
C737        N744   1.157       .  T
C738        N743   1.157       .  T
C739        N741   1.157       .  T
C740        N742   1.158       .  T
C745        C746   1.392       .  A
C745        C750   1.418       .  A
C746        C747   1.399       .  A
C746        C751   1.457       .  S
C747        C748   1.437       .  A
C747        C754   1.450       .  S
C748        C749   1.407       .  A
C749        C750   1.399       .  A
C749        C752   1.454       .  S
C750        C753   1.451       .  S
C751        N758   1.157       .  T
C752        N757   1.157       .  T
C753        N755   1.157       .  T
C754        N756   1.158       .  T
C759        C760   1.423   1_545  A
C759        C764   1.410       .  A
C760        C761   1.415       .  A
C760        C765   1.453       .  S
C761       C1786   1.413       .  A
C761        C768   1.451       .  S
C762       C1785   1.413       .  A
C762       C1787   1.423       .  A
C763        C764   1.417       .  A
C763       C1786   1.423   1_545  A
C763       C1790   1.450       .  S
C764        C767   1.450       .  S
C765        N772   1.157       .  T
C766       C1787   1.450       .  S
C766        N771   1.157       .  T
C767        N769   1.157       .  T
C768        N770   1.157       .  T
C773        C778   1.416       .  A
C773       C2822   1.412       .  A
C774        C775   1.413       .  A
C774       C2821   1.412   1_455  A
C774        C779   1.451   1_455  S
C775        C776   1.421       .  A
C775        C782   1.452       .  S
C776        C777   1.418       .  A
C777       C2826   1.425   1_455  A
C777        C780   1.449       .  S
C778       C2825   1.425       .  A
C778        C781   1.449       .  S
C779        N786   1.157       .  T
C780        N785   1.158       .  T
C781        N783   1.157       .  T
C782        N784   1.157       .  T
C787       C2836   1.397   1_565  A
C787       C1816   1.418       .  A
C788        C789   1.402       .  A
C788       C2835   1.397   1_445  A
C788        C793   1.449       .  S
C789       C1814   1.429   1_545  A
C789        C796   1.452       .  S
C790        C791   1.407       .  A
C790       C1813   1.429       .  A
C791       C2840   1.406   1_455  A
C791        C794   1.446       .  S
C792       C1811   1.418       .  A
C792       C2839   1.406       .  A
C792        C795   1.453       .  S
C793        N800   1.157       .  T
C794        N799   1.157       .  T
C795        N797   1.157       .  T
C796        N798   1.157       .  T
C801        C802   1.440       .  A
C801        C806   1.415       .  A
C802        C803   1.393       .  A
C802        C807   1.455       .  S
C803        C804   1.391       .  A
C803        C810   1.459       .  S
C804        C805   1.413       .  A
C805        C806   1.422       .  A
C805        C808   1.446       .  S
C806        C809   1.448       .  S
C807        N814   1.159       .  T
C808        N813   1.157       .  T
C809        N811   1.157       .  T
C810        N812   1.157       .  T
C815        C816   1.422       .  A
C815        C820   1.414       .  A
C816        C817   1.409       .  A
C816        C821   1.446       .  S
C817        C818   1.407       .  A
C817        C824   1.451       .  S
C818        C819   1.420       .  A
C819        C820   1.417       .  A
C819        C822   1.445       .  S
C820        C823   1.450       .  S
C821        N828   1.156       .  T
C822        N827   1.156       .  T
C823        N825   1.158       .  T
C824        N826   1.157       .  T
C829        C830   1.408       .  A
C829        C834   1.417       .  A
C830        C831   1.415       .  A
C830        C835   1.450       .  S
C831        C832   1.420       .  A
C831        C838   1.451       .  S
C832        C833   1.411       .  A
C833        C834   1.410       .  A
C833        C836   1.454       .  S
C834        C837   1.449       .  S
C835        N842   1.157       .  T
C836        N841   1.158       .  T
C837        N839   1.156       .  T
C838        N840   1.157       .  T
C843        C844   1.414       .  A
C843        C848   1.404       .  A
C844        C845   1.428       .  A
C844        C849   1.447       .  S
C845        C846   1.418       .  A
C845        C852   1.447       .  S
C846        C847   1.432       .  A
C847        C848   1.391       .  A
C847        C850   1.449       .  S
C848        C851   1.466       .  S
C849        N856   1.157       .  T
C850        N855   1.160       .  T
C851        N853   1.158       .  T
C852        N854   1.157       .  T
C857        C858   1.403       .  A
C857        C862   1.415       .  A
C858       C2907   1.404   1_455  A
C858        C863   1.447       .  S
C859        C860   1.420       .  A
C859       C2906   1.404       .  A
C859        C866   1.452       .  S
C860       C2909   1.407       .  A
C861        C862   1.402       .  A
C861       C2908   1.407   1_455  A
C861        C864   1.447       .  S
C862        C865   1.452       .  S
C863        N870   1.157       .  T
C864        N869   1.156       .  T
C865        N867   1.157       .  T
C866        N868   1.157       .  T
C871        C876   1.414       .  A
C871       C2920   1.416       .  A
C872        C873   1.419       .  A
C872       C2919   1.416   1_455  A
C872       C2925   1.447   1_455  S
C873        C874   1.412       .  A
C873        C880   1.450       .  S
C874        C875   1.416       .  A
C875       C2924   1.403   1_455  A
C875        C878   1.451       .  S
C876       C2923   1.403       .  A
C876        C879   1.454       .  S
C877       C2920   1.447       .  S
C877        N884   1.157       .  T
C878        N883   1.157       .  T
C879        N881   1.157       .  T
C880        N882   1.157       .  T
C885       C1066   1.486       .  S
C885        C886   1.405       .  A
C885        C890   1.410       .  A
C886        C887   1.412       .  A
C886        C891   1.453       .  S
C887        C888   1.430       .  A
C887        C894   1.449       .  S
C888        C889   1.424       .  A
C889        C890   1.418       .  A
C889        C892   1.450       .  S
C890        C893   1.451       .  S
C891       N1922   1.157       .  T
C892        N897   1.157       .  T
C893        N895   1.157       .  T
C894        N896   1.158       .  T
N898       C1915   1.157       .  T
C899        C900   1.409       .  A
C899        C904   1.414       .  A
C900        C901   1.415       .  A
C900       C1929   1.442   1_545  S
C901        C902   1.425       .  A
C901       C1932   1.454   1_545  S
C902        C903   1.419       .  A
C903        C904   1.415       .  A
C903        C906   1.451       .  S
C904        C907   1.448       .  S
C905       C1924   1.442       .  S
C905        N912   1.154       .  T
C906        N911   1.158       .  T
C907        N909   1.157       .  T
C908       C1925   1.454       .  S
C908        N910   1.158       .  T
C913        C914   1.425       .  A
C913        C918   1.420       .  A
C914        C915   1.410       .  A
C914        C919   1.455       .  S
C915        C916   1.412       .  A
C915        C922   1.454       .  S
C916        C917   1.415       .  A
C917        C918   1.425       .  A
C917        C920   1.449       .  S
C918        C921   1.449       .  S
C919        N926   1.158       .  T
C920        N925   1.157       .  T
C921        N923   1.157       .  T
C922        N924   1.157       .  T
C927        C928   1.412       .  A
C927        C932   1.399       .  A
C928        C929   1.407       .  A
C928        C933   1.448       .  S
C929        C930   1.410       .  A
C929        C936   1.449       .  S
C930        C931   1.425       .  A
C931        C932   1.410       .  A
C931        C934   1.450       .  S
C932        C935   1.450       .  S
C933        N940   1.156       .  T
C934        N939   1.157       .  T
C935        N937   1.157       .  T
C936        N938   1.157       .  T
C941       C1044   1.504       .  S
C941        C942   1.405       .  A
C941        C946   1.417       .  A
C942        C943   1.413       .  A
C942       C1971   1.448       .  S
C943        C944   1.421       .  A
C943        C950   1.445       .  S
C944        C945   1.418       .  A
C945        C946   1.424       .  A
C945        C948   1.446       .  S
C946        C949   1.446       .  S
C947       C1966   1.448       .  S
C947        N954   1.157       .  T
C948        N953   1.157       .  T
C949       N2999   1.156       .  T
C950        N952   1.156       .  T
N951       C2997   1.156   1_455  T
C955        C956   1.423       .  A
C955       C1984   1.410   1_545  A
C956        C957   1.430       .  A
C956        C961   1.448       .  S
C957        C958   1.417       .  A
C957        C964   1.448       .  S
C958       C1983   1.410   1_545  A
C959        C960   1.402       .  A
C959       C1982   1.410       .  A
C959        C962   1.442       .  S
C960       C1979   1.410       .  A
C960        C963   1.447       .  S
C961        N968   1.157       .  T
C962        N967   1.155       .  T
C963        N965   1.157       .  T
C964        N966   1.157       .  T
C969        C974   1.426       .  A
C969       C1994   1.420       .  A
C970        C971   1.418       .  A
C970       C1993   1.420       .  A
C970        C975   1.451       .  S
C971       C1996   1.423       .  A
C971        C978   1.449       .  S
C972       C2064   1.528   1_455  S
C972        C973   1.420       .  A
C972       C1995   1.423       .  A
C973        C974   1.425       .  A
C973        C976   1.451       .  S
C974        C977   1.447       .  S
C975        N982   1.157       .  T
C976        N981   1.158       .  T
C977        N979   1.156       .  T
C978        N980   1.156       .  T
C983        C984   1.421       .  A
C983        C988   1.407       .  A
C984        C985   1.437       .  A
C984        C989   1.446       .  S
C985        C986   1.419       .  A
C985        C992   1.446       .  S
C986        C987   1.429       .  A
C987        C988   1.401       .  A
C987       C2014   1.448       .  S
C988       C2015   1.456   1_545  S
C989        N996   1.157       .  T
C990       C2011   1.448       .  S
C990        N995   1.156       .  T
C991       C2012   1.456       .  S
C991        N993   1.158       .  T
C992        N994   1.157       .  T
C997        C998   1.412       .  A
C997       C3050   1.407       .  A
C998       C3047   1.406       .  A
C998       C1003   1.452       .  S
C999       C1000   1.423       .  A
C999       C3046   1.406   1_455  A
C999       C3054   1.455   1_455  S
C1000      C1001   1.421       .  A
C1001      C1002   1.422       .  A
C1001      C1004   1.438       .  S
C1002      C3045   1.407   1_455  A
C1002      C1005   1.450       .  S
C1003      N1010   1.157       .  T
C1004      N1009   1.154       .  T
C1005      N1007   1.157       .  T
C1006      C3047   1.455       .  S
C1006      N1008   1.157       .  T
C1011      C1012   1.434       .  A
C1011      C1016   1.399       .  A
C1012      C1013   1.400       .  A
C1012      C1017   1.447       .  S
C1013      C1014   1.394       .  A
C1013      C1020   1.458       .  S
C1014      C1015   1.422       .  A
C1015      C1016   1.403       .  A
C1015      C1018   1.452       .  S
C1016      C1019   1.447       .  S
C1017      N1024   1.158       .  T
C1018      N1023   1.158       .  T
C1019      N1021   1.155       .  T
C1020      N1022   1.157       .  T
O1025     Al1033   1.942       .  S
C1026      O1027   1.267       .  A
C1026      C1979   1.510       .  S
O1027     Al1029   1.902       .  S
O1028     Al1029   1.989       .  S
O1028      C1030   1.276       .  A
Al1029     O1037   2.027       .  S
Al1029     O1039   1.944       .  S
C1030      C2007   1.507       .  S
O1031     Al1033   1.928       .  S
O1031      C1041   1.265       .  A
O1032     Al1042   1.941       .  S
O1032      C1045   1.265       .  A
Al1033     O1046   1.893       .  S
Al1033     O1043   1.899       .  S
Al1033     O1038   1.748       .  S
O1034     Al1042   1.826       .  S
O1034      C1041   1.242       .  A
O1035     Al1042   1.860       .  S
O1036     Al1042   1.972       .  S
O1037      C1044   1.277       .  A
O1038     Al1042   1.745       .  S
O1039      C1040   1.280       .  A
C1040      C4044   1.528       .  S
C1041      C2038   1.464       .  S
C1045      O1046   1.259       .  A
C1045      C2021   1.488       .  S
O1047     Al1055   1.881       .  S
O1047      C1062   1.261       .  A
C1048      O1058   1.263       .  A
C1048      C1993   1.529       .  S
O1049     Al1051   1.946       .  S
O1050     Al1051   1.864       .  S
O1050      C1052   1.242       .  A
Al1051     O1059   1.864       .  S
Al1051     O1061   1.989       .  S
Al1051     O1060   1.752       .  S
C1052      O1065   1.268       .  A
C1052      C1954   1.492       .  S
O1053     Al1055   1.883       .  S
O1054     Al1064   1.944       .  S
O1054      C1067   1.274       .  A
Al1055     O1068   1.938       .  S
Al1055     O1065   1.968       .  S
Al1055     O1060   1.769       .  S
O1056     Al1064   1.946       .  S
O1056      C1063   1.273       .  A
O1057     Al1064   1.975       .  S
O1057      C1066   1.275       .  A
O1058     Al1064   1.919       .  S
O1061      C1062   1.275       .  A
C1062      C1937   1.513       .  S
C1063      C1926   1.511       .  S
C1067      C1982   1.509       .  S
O1069     Al1077   1.883       .  S
O1069      C1084   1.261       .  A
C1070      O1080   1.255       .  A
C1070      O1071   1.269       .  A
C1070      C1853   1.485       .  S
O1071     Al1073   1.954       .  S
O1072     Al1073   1.857       .  S
O1072      C1074   1.243       .  A
Al1073     O1081   1.832       .  S
Al1073     O1083   1.980       .  S
Al1073     O1082   1.716       .  S
C1074      O1087   1.268       .  A
C1074      C1884   1.483       .  S
O1075     Al1077   1.842       .  S
O1075      C1085   1.260       .  A
O1076     Al1086   1.934       .  S
O1076      C1089   1.277       .  A
Al1077     O1090   1.924       .  S
Al1077     O1087   1.977       .  S
Al1077     O1082   1.738       .  S
O1078     Al1086   1.986       .  S
O1078      C1085   1.280       .  A
O1079     Al1086   2.036       .  S
O1079      C1088   1.285       .  A
O1080     Al1086   1.884       .  S
O1081      C1088   1.238       .  A
O1082     Al1086   1.770       .  S
O1083      C1084   1.275       .  A
C1084      C1895   1.491       .  S
C1085      C1867   1.480       .  S
C1088      C1825   1.505       .  S
C1089      O1090   1.268       .  A
C1089      C1839   1.509       .  S
O1091     Al1099   1.916       .  S
O1091      C1106   1.266       .  A
C1092      O1102   1.268       .  A
C1092      C1842   1.498       .  S
O1093     Al1095   1.888       .  S
O1094     Al1095   1.984       .  S
O1094      C1096   1.283       .  A
Al1095     O1103   2.048       .  S
Al1095     O1105   1.913       .  S
Al1095     O1104   1.764       .  S
C1096      O1109   1.262       .  A
C1096      C1783   1.502       .  S
O1097     Al1099   1.971       .  S
O1097      C1107   1.269       .  A
O1098     Al1108   1.979       .  S
O1098      C1111   1.275       .  A
Al1099     O1112   1.906       .  S
Al1099     O1109   1.867       .  S
Al1099     O1104   1.777       .  S
O1100     Al1108   1.861       .  S
O1100      C1107   1.241       .  A
O1101     Al1108   1.862       .  S
O1101      C1110   1.248       .  A
O1103      C1110   1.287       .  A
O1104     Al1108   1.725       .  S
O1105      C1106   1.272       .  A
C1106      C1856   1.490       .  S
C1107      C1811   1.485       .  S
C1110      C2010   1.524       .  S
C1111      O1112   1.266       .  A
C1111      C1797   1.503       .  S
O1113     Al1121   1.944       .  S
O1113      C1128   1.273       .  A
C1114      O1124   1.278       .  A
C1114      O1115   1.266       .  A
C1114      C1713   1.517       .  S
O1115     Al1117   1.915       .  S
O1116     Al1117   1.948       .  S
O1116      C1118   1.271       .  A
Al1117     O1125   1.976       .  S
Al1117     O1127   1.927       .  S
Al1117     O1126   1.779       .  S
C1118      O1131   1.262       .  A
C1118      C1741   1.493       .  S
O1119     Al1121   1.936       .  S
O1119      C1129   1.264       .  A
O1120     Al1130   1.967       .  S
O1120      C1133   1.272       .  A
Al1121     O1134   1.904       .  S
Al1121     O1131   1.904       .  S
Al1121     O1126   1.771       .  S
O1122     Al1130   1.839       .  S
O1122      C1129   1.240       .  A
O1123     Al1130   1.869       .  S
O1123      C1132   1.249       .  A
O1124     Al1130   1.974       .  S
O1125      C1132   1.271       .  A
O1126     Al1130   1.744       .  S
O1127      C1128   1.273       .  A
C1128      C1727   1.490       .  S
C1129      C1772   1.481       .  S
C1132      C1699   1.489       .  S
C1133      O1134   1.266       .  A
C1133      C1755   1.506       .  S
O1135     Al1143   1.878       .  S
O1135      C1150   1.264       .  A
C1136      O1146   1.258       .  A
C1136      O1137   1.273       .  A
C1136      C1730   1.502       .  S
O1137     Al1139   1.957       .  S
O1138     Al1139   1.843       .  S
O1138      C1140   1.241       .  A
Al1139     O1147   1.850       .  S
Al1139     O1149   1.993       .  S
Al1139     O1148   1.757       .  S
C1140      O1153   1.261       .  A
C1140      C1688   1.485       .  S
O1141     Al1143   1.891       .  S
O1141      C1151   1.266       .  A
O1142     Al1152   1.939       .  S
O1142      C1155   1.270       .  A
Al1143     O1156   1.925       .  S
Al1143     O1153   1.955       .  S
Al1143     O1148   1.766       .  S
O1144     Al1152   1.937       .  S
O1144      C1151   1.270       .  A
O1145     Al1152   1.949       .  S
O1145      C1154   1.271       .  A
O1146     Al1152   1.901       .  S
O1147      C1154   1.249       .  A
O1148     Al1152   1.782       .  S
O1149      C1150   1.278       .  A
C1150      C1671   1.522       .  S
C1151      C1828   1.470       .  S
C1154      C1657   1.482       .  S
C1155      O1156   1.267       .  A
C1155      C3764   1.495       .  S
O1157     Al1165   1.893       .  S
O1157      C1172   1.260       .  A
C1158      O1168   1.267       .  A
C1158      O1159   1.273       .  A
C1158      C1601   1.488       .  S
O1159     Al1161   1.946       .  S
O1160     Al1161   1.938   1_554  S
O1160      C1162   1.259       .  A
Al1161     O1169   1.952       .  S
Al1161     O1171   1.943       .  S
Al1161     O1170   1.811       .  S
C1162      O1175   1.258       .  A
C1162      C1618   1.497       .  S
O1163     Al1165   1.926       .  S
O1163      C1173   1.256       .  A
O1164     Al1174   1.945       .  S
O1164      C1177   1.279       .  A
Al1165     O1178   1.906       .  S
Al1165     O1175   1.870       .  S
Al1165     O1170   1.786   1_554  S
O1166     Al1174   1.803       .  S
O1166      C1173   1.238   1_556  A
O1167     Al1174   1.836       .  S
O1167      C1176   1.240       .  A
O1168     Al1174   1.893       .  S
O1169      C1176   1.260       .  A
O1170     Al1174   1.784       .  S
O1171      C1172   1.267   1_556  A
C1172      C1590   1.499       .  S
C1173      C1629   1.460       .  S
C1176      C1744   1.481       .  S
C1177      O1178   1.267   1_556  A
C1177      C1646   1.513       .  S
O1179     Al1187   1.906   1_554  S
O1179      C1194   1.266       .  A
C1180      O1181   1.285       .  A
C1180      C1587   1.507       .  S
O1182     Al1183   1.830       .  S
O1182      C1184   1.244       .  A
Al1183     O1191   1.855       .  S
Al1183     O1193   1.973       .  S
Al1183     O1192   1.739       .  S
C1184      O1197   1.260   1_554  A
C1184      C1573   1.459       .  S
O1185     Al1187   1.869       .  S
O1185      C1195   1.263       .  A
O1186     Al1196   1.933       .  S
O1186      C1199   1.278   1_554  A
Al1187     O1200   1.922       .  S
Al1187     O1197   1.921       .  S
Al1187     O1192   1.749   1_556  S
O1188     Al1196   1.975   1_556  S
O1188      C1195   1.274       .  A
O1189     Al1196   2.009       .  S
O1189      C1198   1.274       .  A
O1190     Al1196   1.882       .  S
O1191      C1198   1.241       .  A
O1192     Al1196   1.793       .  S
O1193      C1194   1.274       .  A
C1194      C1562   1.506       .  S
C1195      C1545   1.496       .  S
C1198      C1923   1.498       .  S
C1199      O1200   1.268       .  A
C1199      C1604   1.488       .  S
O1201     Al1209   1.936       .  S
O1201      C1216   1.268       .  A
C1202      O1212   1.272       .  A
C1202      O1203   1.256       .  A
C1202      C1531   1.516       .  S
O1203     Al1205   1.881       .  S
O1204     Al1205   1.955       .  S
O1204      C1206   1.274       .  A
Al1205     O1213   1.986       .  S
Al1205     O1215   1.895       .  S
Al1205     O1214   1.771       .  S
C1206      O1219   1.260       .  A
C1206      C1702   1.497       .  S
O1207     Al1209   1.959       .  S
O1207      C1217   1.266       .  A
O1208     Al1218   1.984       .  S
O1208      C1221   1.278       .  A
Al1209     O1222   1.896       .  S
Al1209     O1219   1.873       .  S
Al1209     O1214   1.776       .  S
O1210     Al1218   1.848       .  S
O1210      C1217   1.244       .  A
O1211     Al1218   1.889       .  S
O1211      C1220   1.257       .  A
O1212     Al1218   1.943       .  S
O1213      C1220   1.277       .  A
O1214     Al1218   1.745       .  S
O1215      C1216   1.268       .  A
C1216      C1517   1.474       .  S
C1217      C1881   1.477       .  S
C1220      C1506   1.498       .  S
C1221      O1222   1.265       .  A
C1221      C1800   1.510       .  S
O1223     Al1231   1.880       .  S
O1223      C1238   1.263       .  A
C1224      C1520   1.486       .  S
O1225     Al1227   1.937       .  S
O1226     Al1227   1.835       .  S
O1226      C1228   1.233       .  A
Al1227     O1235   1.853       .  S
Al1227     O1237   1.982       .  S
Al1227     O1236   1.730       .  S
C1228      O1241   1.265       .  A
C1228      C1814   1.495       .  S
O1229     Al1231   1.885       .  S
O1229      C1239   1.269       .  A
O1230     Al1240   1.945       .  S
O1230      C1243   1.277       .  A
Al1231     O1244   1.917       .  S
Al1231     O1241   1.990       .  S
Al1231     O1236   1.777       .  S
O1232     Al1240   1.978       .  S
O1232      C1239   1.284       .  A
O1233     Al1240   2.017       .  S
O1233      C1242   1.278       .  A
O1234     Al1240   1.881       .  S
O1235      C1242   1.245       .  A
O1236     Al1240   1.768       .  S
O1237      C1238   1.279       .  A
C1238      C1898   1.490       .  S
C1239      C1912   1.516       .  S
C1242      C1489   1.499       .  S
C1243      O1244   1.264       .  A
C1243      C1534   1.514       .  S
O1245      C1260   1.268       .  A
C1246      O1247   1.254       .  A
C1246      C1450   1.507       .  S
O1247     Al1249   1.883       .  S
O1248     Al1249   1.967       .  S
O1248      C1250   1.276       .  A
Al1249     O1257   2.001       .  S
Al1249     O1259   1.889       .  S
C1250      O1263   1.262       .  A
C1250      C1475   1.522       .  S
O1251     Al1253   1.945       .  S
O1251      C1261   1.269       .  A
O1252     Al1262   1.945       .  S
O1252      C1265   1.267       .  A
Al1253     O1266   1.928       .  S
Al1253     O1258   1.773       .  S
O1254     Al1262   1.859       .  S
O1254      C1261   1.250       .  A
O1255     Al1262   1.860       .  S
O1256     Al1262   1.929       .  S
O1257      C1264   1.282       .  A
O1258     Al1262   1.755       .  S
O1259      C1260   1.264       .  A
C1260      C1461   1.483       .  S
C1261      C1685   1.479       .  S
C1264      C1786   1.500       .  S
C1265      O1266   1.270       .  A
C1265      C1758   1.513       .  S
O1267     Al1275   1.889       .  S
O1267      C1282   1.261       .  A
C1268      O1278   1.255       .  A
C1268      C1464   1.485       .  S
O1269     Al1271   1.951       .  S
O1270     Al1271   1.840       .  S
O1270      C1272   1.236       .  A
Al1271     O1279   1.855       .  S
Al1271     O1281   1.996       .  S
C1272      O1285   1.265       .  A
C1272      C1769   1.465       .  S
O1273      C1283   1.259       .  A
O1274     Al1284   1.939       .  S
O1274      C1287   1.278       .  A
Al1275     O1285   1.939       .  S
O1276     Al1284   2.009       .  S
O1276      C1283   1.283       .  A
O1277     Al1284   2.046       .  S
O1277      C1286   1.283       .  A
O1278     Al1284   1.880       .  S
O1280     Al1284   1.780       .  S
O1281      C1282   1.278       .  A
C1282      C1674   1.501       .  S
C1283      C1492   1.505       .  S
C1286      C1548   1.505       .  S
C1287      O1288   1.265       .  A
C1287      C3495   1.507   1_455  S
O1289     Al1297   1.871       .  S
O1289      C1304   1.256       .  A
C1290      O1300   1.274       .  A
C1290      O1291   1.275       .  A
C1290      C1422   1.473       .  S
O1291     Al1293   1.936       .  S
O1292     Al1293   1.976       .  S
O1292      C1294   1.277       .  A
Al1293     O1301   2.049       .  S
Al1293     O1303   1.913       .  S
Al1293     O1302   1.771       .  S
C1294      O1307   1.255       .  A
C1294      C1503   1.517       .  S
O1295     Al1297   1.928       .  S
O1295      C1305   1.251       .  A
O1296     Al1306   1.967       .  S
O1296      C1309   1.286       .  A
Al1297     O1310   1.915       .  S
Al1297     O1307   1.865       .  S
Al1297     O1302   1.764       .  S
O1298     Al1306   1.809       .  S
O1298      C1305   1.237       .  A
O1299     Al1306   1.855       .  S
O1299      C1308   1.232       .  A
O1300     Al1306   1.895       .  S
O1301      C1308   1.281       .  A
O1302     Al1306   1.757       .  S
O1303      C1304   1.263       .  A
C1304      C3481   1.487   1_455  S
C1305      C1951   1.456       .  S
C1308      C1615   1.522       .  S
C1309      O1310   1.275       .  A
C1309      C2024   1.513       .  S
O1311     Al1319   1.911       .  S
O1311      C1326   1.265       .  A
C1312      O1322   1.251       .  A
C1312      O1313   1.271       .  A
C1312      C1436   1.494       .  S
O1313     Al1315   1.981       .  S
O1314     Al1315   1.838       .  S
O1314      C1316   1.241       .  A
Al1315     O1323   1.837       .  S
Al1315     O1325   1.960       .  S
Al1315     O1324   1.706       .  S
C1316      O1329   1.270       .  A
C1316      C2035   1.481       .  S
O1317     Al1319   1.876       .  S
O1317      C1327   1.266       .  A
O1318     Al1328   1.895       .  S
O1318      C1331   1.271       .  A
Al1319     O1332   1.923       .  S
Al1319     O1329   1.977       .  S
Al1319     O1324   1.764       .  S
O1320     Al1328   1.957       .  S
O1320      C1327   1.280       .  A
O1321     Al1328   2.047       .  S
O1321      C1330   1.279       .  A
O1322     Al1328   1.870       .  S
O1323      C1330   1.235       .  A
O1324     Al1328   1.789       .  S
O1325      C1326   1.267       .  A
C1326      C1940   1.498       .  S
C1327      C1405   1.491       .  S
C1330      C1870   1.503       .  S
C1331      O1332   1.271       .  A
C1331      C1419   1.471       .  S
O1333     Al1341   1.905   1_554  S
O1333      C1348   1.269       .  A
C1334      O1344   1.260       .  A
C1334      O1335   1.269       .  A
C1334      C1394   1.517       .  S
O1335     Al1337   1.934       .  S
O1336     Al1337   1.864       .  S
O1336      C1338   1.243   1_554  A
Al1337     O1345   1.849       .  S
Al1337     O1347   1.970       .  S
Al1337     O1346   1.751       .  S
C1338      O1351   1.265       .  A
C1338      C1632   1.497   1_556  S
O1339     Al1341   1.898       .  S
O1339      C1349   1.268       .  A
O1340     Al1350   1.916       .  S
O1340      C1353   1.269   1_554  A
Al1341     O1354   1.937       .  S
Al1341     O1351   1.963       .  S
Al1341     O1346   1.777   1_556  S
O1342     Al1350   1.937   1_556  S
O1342      C1349   1.271       .  A
O1343     Al1350   1.969       .  S
O1343      C1352   1.273       .  A
O1344     Al1350   1.907       .  S
O1345      C1352   1.250       .  A
O1346     Al1350   1.771       .  S
O1347      C1348   1.274       .  A
C1348      C1559   1.518       .  S
C1349      C1660   1.494       .  S
C1352      C1408   1.481       .  S
C1353      O1354   1.267       .  A
C1353      C1377   1.486       .  S
O1355     Al1363   1.920       .  S
O1355      C1370   1.271       .  A
C1356      C1380   1.500       .  S
O1357     Al1359   1.894       .  S
O1358     Al1359   1.973   1_554  S
O1358      C1360   1.276       .  A
Al1359     O1367   2.034       .  S
Al1359     O1369   1.945   1_556  S
Al1359     O1368   1.787       .  S
C1360      O1373   1.263       .  A
C1360      C1968   1.526       .  S
O1361     Al1363   1.942       .  S
O1361      C1371   1.268       .  A
O1362     Al1372   1.972       .  S
O1362      C1375   1.272       .  A
Al1363     O1376   1.900       .  S
Al1363     O1373   1.894       .  S
Al1363     O1368   1.759   1_554  S
O1364     Al1372   1.829       .  S
O1364      C1371   1.243   1_556  A
O1365     Al1372   1.855       .  S
O1365      C1374   1.242       .  A
O1366     Al1372   1.984       .  S
O1367      C1374   1.278       .  A
O1368     Al1372   1.750       .  S
O1369      C1370   1.281       .  A
C1370      C1391   1.523       .  S
C1371      C1576   1.465       .  S
C1374      C1478   1.510       .  S
C1375      O1376   1.261   1_556  A
C1375      C1643   1.501       .  S
C1377      C1378   1.412       .  A
C1377      C1382   1.404   1_556  A
C1378      C1379   1.419       .  A
C1378      C1383   1.445       .  S
C1379      C1380   1.412       .  A
C1379      C1386   1.443       .  S
C1380      C1381   1.413   1_556  A
C1381      C1382   1.407       .  A
C1381      C1384   1.439       .  S
C1382      C1385   1.450       .  S
C1383      N1390   1.156       .  T
C1384      N1389   1.153       .  T
C1385      N1387   1.155       .  T
C1386      N1388   1.157       .  T
C1391      C1392   1.429       .  A
C1391      C1396   1.419       .  A
C1392      C1393   1.417       .  A
C1392      C1397   1.452       .  S
C1393      C1394   1.413       .  A
C1393      C1400   1.451       .  S
C1394      C1395   1.423       .  A
C1395      C1396   1.422       .  A
C1395      C1398   1.448   1_554  S
C1396      C1399   1.451   1_554  S
C1397      N1404   1.157       .  T
C1398      N1403   1.157       .  T
C1399      N1401   1.158       .  T
C1400      N1402   1.157       .  T
C1405      C1406   1.411       .  A
C1405      C1410   1.421       .  A
C1406      C1407   1.411       .  A
C1406      C1411   1.451       .  S
C1407      C1408   1.415       .  A
C1407      C1414   1.447       .  S
C1408      C1409   1.409       .  A
C1409      C1410   1.411       .  A
C1409      C1412   1.451       .  S
C1410      C1413   1.453       .  S
C1411      N1418   1.157       .  T
C1412      N1417   1.157       .  T
C1413      N1415   1.157       .  T
C1414      N1416   1.156       .  T
C1419      C1420   1.413       .  A
C1419      C1424   1.410       .  A
C1420      C1421   1.408       .  A
C1420      C1425   1.451       .  S
C1421      C1422   1.411       .  A
C1421      C1428   1.451       .  S
C1422      C1423   1.410       .  A
C1423      C1424   1.403       .  A
C1423      C1426   1.446       .  S
C1424      C1427   1.453       .  S
C1425      N1432   1.157       .  T
C1426      N1431   1.154       .  T
C1427      N1429   1.157       .  T
C1428      N1430   1.157       .  T
C1433      C3352   1.487       .  S
C1433      C1434   1.419       .  A
C1433      C1438   1.412       .  A
C1434      C1435   1.409       .  A
C1434      C1439   1.452       .  S
C1435      C1436   1.406       .  A
C1435      C1442   1.448       .  S
C1436      C1437   1.415       .  A
C1437      C1438   1.411       .  A
C1437      C1440   1.446       .  S
C1438      C1441   1.451       .  S
C1439      N3494   1.157       .  T
C1440      N1445   1.156       .  T
C1441      N1443   1.157       .  T
C1442      N1444   1.158       .  T
N1446      C3487   1.157   1_455  T
C1447      C3335   1.507       .  S
C1447      C1448   1.429       .  A
C1447      C1452   1.415       .  A
C1448      C1449   1.409       .  A
C1449      C1450   1.417       .  A
C1450      C1451   1.425       .  A
C1451      C1452   1.417       .  A
C1451      C1454   1.453       .  S
C1452      C1455   1.452       .  S
C1453      N3508   1.158       .  T
C1454      N1459   1.157       .  T
C1455      N1457   1.158       .  T
C1456      N1458   1.158       .  T
N1460      C3501   1.158   1_455  T
C1461      C1462   1.406       .  A
C1461      C1466   1.413       .  A
C1462      C1463   1.404       .  A
C1462      C1467   1.449       .  S
C1463      C1464   1.414       .  A
C1463      C1470   1.448       .  S
C1464      C1465   1.412       .  A
C1465      C1466   1.417       .  A
C1465      C1468   1.449       .  S
C1466      C1469   1.448       .  S
C1467      N1474   1.155       .  T
C1468      N1473   1.158       .  T
C1469      N1471   1.157       .  T
C1470      N1472   1.156   1_565  T
C1475      C1476   1.428       .  A
C1475      C1480   1.420       .  A
C1476      C1477   1.419       .  A
C1477      C1478   1.402       .  A
C1477      C1484   1.437       .  S
C1478      C1479   1.411       .  A
C1479      C1480   1.422       .  A
C1479      C1482   1.440       .  S
C1480      C1483   1.448       .  S
C1481      N1488   1.158       .  T
C1482      N1487   1.154       .  T
C1483      N1485   1.157       .  T
C1489      C1490   1.411       .  A
C1489      C1494   1.419       .  A
C1490      C1491   1.397       .  A
C1491      C1492   1.413       .  A
C1492      C1493   1.418       .  A
C1493      C1494   1.432       .  A
C1493      C1496   1.444       .  S
C1494      C1497   1.446       .  S
C1495      N1502   1.156       .  T
C1496      N1501   1.156       .  T
C1497      N1499   1.157       .  T
C1498      N1500   1.158       .  T
C1503      C1504   1.430       .  A
C1503      C1508   1.419       .  A
C1504      C1505   1.405       .  A
C1504      C1509   1.451       .  S
C1505      C1506   1.400       .  A
C1505      C1512   1.451       .  S
C1506      C1507   1.417       .  A
C1507      C1508   1.429       .  A
C1507      C1510   1.445       .  S
C1508      C1511   1.448       .  S
C1509      N1516   1.157       .  T
C1510      N1515   1.157       .  T
C1511      N1513   1.157       .  T
C1512      N1514   1.157       .  T
C1517      C1518   1.411       .  A
C1517      C1522   1.403       .  A
C1518      C1519   1.418       .  A
C1518      C1523   1.448       .  S
C1519      C1520   1.415       .  A
C1519      C1526   1.449       .  S
C1520      C1521   1.412       .  A
C1521      C1522   1.400       .  A
C1521      C1524   1.440       .  S
C1522      C1525   1.453       .  S
C1523      N1530   1.157       .  T
C1524      N1529   1.154       .  T
C1525      N1527   1.155       .  T
C1526      N1528   1.157       .  T
C1531      C1532   1.417       .  A
C1531      C1536   1.430       .  A
C1532      C1533   1.411       .  A
C1532      C1537   1.453       .  S
C1533      C1534   1.426       .  A
C1533      C1540   1.451       .  S
C1534      C1535   1.414       .  A
C1535      C1536   1.420       .  A
C1535      C1538   1.452       .  S
C1536      C1539   1.451       .  S
C1537      N1544   1.157       .  T
C1538      N1543   1.158       .  T
C1539      N1541   1.157       .  T
C1540      N1542   1.157       .  T
C1545      C1546   1.420       .  A
C1545      C1550   1.402       .  A
C1547      C1548   1.421       .  A
C1547      C1554   1.446       .  S
C1549      C1550   1.391       .  A
C1549      C1552   1.438       .  S
C1550      C1553   1.458       .  S
C1551      N1558   1.157       .  T
C1552      N1557   1.156       .  T
C1553      N1555   1.157       .  T
C1554      N1556   1.157       .  T
C1559      C1560   1.420   1_554  A
C1559      C1564   1.425       .  A
C1560      C1561   1.413       .  A
C1560      C1565   1.454       .  S
C1561      C1562   1.419   1_556  A
C1561      C1568   1.451       .  S
C1562      C1563   1.413       .  A
C1563      C1564   1.426       .  A
C1563      C1566   1.449       .  S
C1564      C1567   1.450       .  S
C1565      N1572   1.158       .  T
C1566      N1571   1.157       .  T
C1567      N1569   1.157       .  T
C1568      N1570   1.157       .  T
C1573      C1578   1.420       .  A
C1574      C1575   1.400   1_545  A
C1574      C1579   1.454       .  S
C1575      C1576   1.426   1_556  A
C1575      C1582   1.452       .  S
C1577      C1578   1.395       .  A
C1577      C1580   1.447       .  S
C1578      C1581   1.454       .  S
C1579      N1586   1.157       .  T
C1580      N1585   1.155       .  T
C1581      N1583   1.158       .  T
C1582      N1584   1.158       .  T
C1587      C1588   1.412       .  A
C1587      C1592   1.416       .  A
C1588      C1589   1.410       .  A
C1588      C1593   1.445   1_554  S
C1589      C1590   1.408       .  A
C1589      C1596   1.445   1_554  S
C1590      C1591   1.414       .  A
C1591      C1592   1.425       .  A
C1591      C1594   1.447       .  S
C1592      C1595   1.443       .  S
C1593      N1600   1.156       .  T
C1594      N1599   1.157       .  T
C1595      N1597   1.156       .  T
C1596      N1598   1.154       .  T
C1601      C1602   1.411       .  A
C1601      C1606   1.414   1_556  A
C1602      C1603   1.418       .  A
C1602      C1607   1.448       .  S
C1603      C1604   1.416       .  A
C1603      C1610   1.450       .  S
C1604      C1605   1.408   1_556  A
C1605      C1606   1.409       .  A
C1605      C1608   1.447       .  S
C1606      C1609   1.451       .  S
C1607      N1614   1.157       .  T
C1608      N1613   1.155       .  T
C1609      N1611   1.156       .  T
C1610      N1612   1.157       .  T
C1615      C1616   1.441       .  A
C1615      C1620   1.420       .  A
C1616      C1617   1.397       .  A
C1616      C1621   1.453       .  S
C1617      C1618   1.395       .  A
C1617      C1624   1.461       .  S
C1618      C1619   1.418       .  A
C1619      C1620   1.436       .  A
C1619      C1622   1.445       .  S
C1620      C1623   1.446       .  S
C1621      N1628   1.158       .  T
C1622      N1627   1.157       .  T
C1623      N1625   1.157       .  T
C1624      N1626   1.157       .  T
C1629      C1630   1.405       .  A
C1629      C1634   1.410       .  A
C1630      C1631   1.410       .  A
C1630      C1635   1.451       .  S
C1631      C1632   1.423       .  A
C1631      C1638   1.453       .  S
C1632      C1633   1.416   1_554  A
C1633      C1634   1.408   1_556  A
C1633      C1636   1.450       .  S
C1634      C1637   1.450       .  S
C1635      N1642   1.157       .  T
C1636      N1641   1.157       .  T
C1637      N1639   1.157       .  T
C1638      N1640   1.158       .  T
C1643      C1644   1.413       .  A
C1643      C1648   1.413   1_556  A
C1644      C1645   1.424       .  A
C1644      C1649   1.442       .  S
C1645      C1646   1.419       .  A
C1645      C1652   1.450       .  S
C1646      C1647   1.425   1_556  A
C1647      C1648   1.411       .  A
C1647      C1650   1.455       .  S
C1648      C1651   1.452       .  S
C1649      N1656   1.154       .  T
C1650      N1655   1.158       .  T
C1651      N1653   1.157       .  T
C1652      N1654   1.157       .  T
C1657      C1658   1.401       .  A
C1657      C1662   1.409       .  A
C1658      C1659   1.409       .  A
C1658      C1663   1.439       .  S
C1659      C1660   1.418       .  A
C1659      C1666   1.451       .  S
C1660      C1661   1.418       .  A
C1661      C1662   1.411       .  A
C1661      C1664   1.448       .  S
C1662      C1665   1.450       .  S
C1663      N1670   1.153       .  T
C1664      N1669   1.157       .  T
C1665      N1667   1.157       .  T
C1666      N1668   1.158       .  T
C1671      C1672   1.424       .  A
C1671      C3724   1.428       .  A
C1672      C3721   1.427       .  A
C1672      C1677   1.449       .  S
C1673      C3720   1.427   1_455  A
C1673      C1674   1.413       .  A
C1673      C3728   1.449       .  S
C1674      C1675   1.412       .  A
C1675      C1676   1.411       .  A
C1675      C1678   1.453       .  S
C1676      C3719   1.428   1_455  A
C1676      C1679   1.455       .  S
C1677      N1684   1.158       .  T
C1678      N1683   1.157       .  T
C1679      N1681   1.158       .  T
C1680      C3721   1.449       .  S
C1680      N1682   1.157       .  T
C1685      C1686   1.414       .  A
C1685      C1690   1.406       .  A
C1686      C1687   1.406       .  A
C1686      C1691   1.452       .  S
C1687      C1688   1.414       .  A
C1687      C1694   1.449       .  S
C1688      C1689   1.418       .  A
C1689      C1690   1.401       .  A
C1689      C1692   1.451       .  S
C1690      C1693   1.450       .  S
C1691      N1698   1.157       .  T
C1692      N1697   1.156       .  T
C1693      N1695   1.157       .  T
C1694      N1696   1.157       .  T
C1699      C1700   1.409       .  A
C1699      C1704   1.414       .  A
C1700      C1701   1.412       .  A
C1700      C1705   1.449       .  S
C1701      C1702   1.421       .  A
C1701      C1708   1.452       .  S
C1702      C1703   1.413       .  A
C1703      C1704   1.413       .  A
C1703      C1706   1.450       .  S
C1704      C1707   1.447       .  S
C1705      N1712   1.157       .  T
C1706      N1711   1.157       .  T
C1707      N1709   1.157       .  T
C1708      N1710   1.157       .  T
C1713      C1714   1.416       .  A
C1713      C1718   1.423       .  A
C1714      C1715   1.404       .  A
C1714      C1719   1.438       .  S
C1715      C1716   1.399       .  A
C1715      C1722   1.447       .  S
C1716      C3203   1.495   1_455  S
C1716      C1717   1.412       .  A
C1717      C1718   1.429       .  A
C1717      C1720   1.448       .  S
C1718      C1721   1.442       .  S
C1719      N1726   1.155       .  T
C1720      N1725   1.157       .  T
C1721      N1723   1.155       .  T
C1722      N1724   1.156       .  T
C1727      C1728   1.405       .  A
C1727      C1732   1.406       .  A
C1728      C1729   1.411       .  A
C1728      C1733   1.447       .  S
C1729      C1730   1.419       .  A
C1729      C1736   1.448       .  S
C1730      C1731   1.416       .  A
C1731      C1732   1.420       .  A
C1731      C1734   1.441       .  S
C1732      C1735   1.446       .  S
C1733      N1740   1.155       .  T
C1734      N1739   1.155       .  T
C1735      N1737   1.157       .  T
C1736      N1738   1.157       .  T
C1741      C1742   1.406       .  A
C1741      C1746   1.416       .  A
C1742      C1743   1.408       .  A
C1742      C1747   1.445       .  S
C1743      C1744   1.413       .  A
C1743      C1750   1.447       .  S
C1744      C1745   1.409       .  A
C1745      C1746   1.418       .  A
C1745      C1748   1.449       .  S
C1746      C1749   1.445       .  S
C1747      N1754   1.154       .  T
C1748      N1753   1.157       .  T
C1749      N1751   1.155       .  T
C1750      N1752   1.155       .  T
C1755      C1756   1.419       .  A
C1755      C1760   1.413       .  A
C1756      C1757   1.415       .  A
C1756      C1761   1.450       .  S
C1757      C1758   1.416       .  A
C1757      C1764   1.452       .  S
C1758      C1759   1.424       .  A
C1759      C1760   1.423       .  A
C1759      C1762   1.450       .  S
C1760      C1763   1.450       .  S
C1761      N1768   1.157       .  T
C1762      N1767   1.157       .  T
C1763      N1765   1.157       .  T
C1764      N1766   1.158       .  T
C1769      C1770   1.392       .  A
C1769      C1774   1.418       .  A
C1770      C1771   1.399       .  A
C1770      C1775   1.457       .  S
C1771      C1772   1.437       .  A
C1771      C1778   1.450       .  S
C1772      C1773   1.407       .  A
C1773      C1774   1.399       .  A
C1773      C1776   1.454       .  S
C1774      C1777   1.451       .  S
C1775      N1782   1.157       .  T
C1776      N1781   1.157       .  T
C1777      N1779   1.157       .  T
C1778      N1780   1.158       .  T
C1783      C1784   1.423       .  A
C1783      C1788   1.410       .  A
C1784      C1785   1.415       .  A
C1784      C1789   1.453       .  S
C1785      C1792   1.451       .  S
C1787      C1788   1.417       .  A
C1788      C1791   1.450       .  S
C1789      N1796   1.157       .  T
C1790      N1795   1.157       .  T
C1791      N1793   1.157       .  T
C1792      N1794   1.157       .  T
C1797      C3846   1.412       .  A
C1797      C1802   1.416       .  A
C1798      C3845   1.412   1_455  A
C1798      C1799   1.413       .  A
C1798      C1803   1.451   1_455  S
C1799      C1800   1.421       .  A
C1799      C1806   1.452       .  S
C1800      C1801   1.418       .  A
C1801      C3850   1.425   1_455  A
C1801      C1804   1.449       .  S
C1802      C3849   1.425       .  A
C1802      C1805   1.449       .  S
C1803      N1810   1.157       .  T
C1804      N1809   1.158       .  T
C1805      N1807   1.157       .  T
C1806      N1808   1.157       .  T
C1811      C3860   1.397       .  A
C1812      C3859   1.397   1_455  A
C1812      C1813   1.402       .  A
C1812      C1817   1.449       .  S
C1813      C1820   1.452       .  S
C1814      C1815   1.407       .  A
C1815      C3864   1.406   1_455  A
C1815      C1818   1.446       .  S
C1816      C3863   1.406       .  A
C1816      C1819   1.453       .  S
C1817      N1824   1.157       .  T
C1818      N1823   1.157       .  T
C1819      N1821   1.157       .  T
C1820      N1822   1.157       .  T
C1825      C1826   1.440       .  A
C1825      C1830   1.415       .  A
C1826      C1827   1.393       .  A
C1826      C1831   1.455       .  S
C1827      C1828   1.391       .  A
C1827      C1834   1.459       .  S
C1828      C1829   1.413       .  A
C1829      C1830   1.422       .  A
C1829      C1832   1.446       .  S
C1830      C1833   1.448       .  S
C1831      N1838   1.159       .  T
C1832      N1837   1.157       .  T
C1833      N1835   1.157       .  T
C1834      N1836   1.157       .  T
C1839      C1840   1.422       .  A
C1839      C1844   1.414       .  A
C1840      C1841   1.409       .  A
C1840      C1845   1.446       .  S
C1841      C1842   1.407       .  A
C1841      C1848   1.451       .  S
C1842      C1843   1.420       .  A
C1843      C1844   1.417       .  A
C1843      C1846   1.445       .  S
C1844      C1847   1.450       .  S
C1845      N1852   1.156       .  T
C1846      N1851   1.156       .  T
C1847      N1849   1.158       .  T
C1848      N1850   1.157       .  T
C1853      C1854   1.408       .  A
C1853      C1858   1.417       .  A
C1854      C1855   1.415       .  A
C1854      C1859   1.450       .  S
C1855      C1856   1.420       .  A
C1855      C1862   1.451       .  S
C1856      C1857   1.411       .  A
C1857      C1858   1.410       .  A
C1857      C1860   1.454       .  S
C1858      C1861   1.449       .  S
C1859      N1866   1.157       .  T
C1860      N1865   1.158       .  T
C1861      N1863   1.156       .  T
C1862      N1864   1.157       .  T
C1867      C1868   1.414       .  A
C1867      C1872   1.404       .  A
C1868      C1869   1.428       .  A
C1868      C1873   1.447       .  S
C1869      C1870   1.418       .  A
C1869      C1876   1.447       .  S
C1870      C1871   1.432       .  A
C1871      C1872   1.391       .  A
C1871      C1874   1.449       .  S
C1872      C1875   1.466       .  S
C1873      N1880   1.157       .  T
C1874      N1879   1.160       .  T
C1875      N1877   1.158       .  T
C1876      N1878   1.157       .  T
C1881      C1882   1.403       .  A
C1881      C1886   1.415       .  A
C1882      C3931   1.404   1_455  A
C1882      C1887   1.447       .  S
C1883      C3930   1.404       .  A
C1883      C1884   1.420       .  A
C1883      C1890   1.452       .  S
C1884      C3933   1.407       .  A
C1885      C3932   1.407   1_455  A
C1885      C1886   1.402       .  A
C1885      C1888   1.447       .  S
C1886      C1889   1.452       .  S
C1887      N1894   1.157       .  T
C1888      N1893   1.156       .  T
C1889      N1891   1.157       .  T
C1890      N1892   1.157       .  T
C1895      C3944   1.416       .  A
C1895      C1900   1.414       .  A
C1896      C3943   1.416   1_455  A
C1896      C1897   1.419       .  A
C1896      C3949   1.447   1_455  S
C1897      C1898   1.412       .  A
C1897      C1904   1.450       .  S
C1898      C1899   1.416       .  A
C1899      C3948   1.403   1_455  A
C1899      C1902   1.451       .  S
C1900      C3947   1.403       .  A
C1900      C1903   1.454       .  S
C1901      C3944   1.447       .  S
C1901      N1908   1.157       .  T
C1902      N1907   1.157       .  T
C1903      N1905   1.157       .  T
C1904      N1906   1.157       .  T
C1909      C1910   1.405       .  A
C1909      C1914   1.410   1_545  A
C1910      C1911   1.412       .  A
C1910      C1915   1.453       .  S
C1911      C1912   1.430   1_545  A
C1911      C1918   1.449       .  S
C1912      C1913   1.424       .  A
C1913      C1914   1.418       .  A
C1913      C1916   1.450       .  S
C1914      C1917   1.451       .  S
C1916      N1921   1.157       .  T
C1917      N1919   1.157       .  T
C1918      N1920   1.158       .  T
C1923      C1924   1.409       .  A
C1923      C1928   1.414       .  A
C1924      C1925   1.415       .  A
C1925      C1926   1.425       .  A
C1926      C1927   1.419       .  A
C1927      C1928   1.415       .  A
C1927      C1930   1.451       .  S
C1928      C1931   1.448       .  S
C1929      N1936   1.154       .  T
C1930      N1935   1.158       .  T
C1931      N1933   1.157       .  T
C1932      N1934   1.158       .  T
C1937      C1938   1.425       .  A
C1937      C1942   1.420       .  A
C1938      C1939   1.410       .  A
C1938      C1943   1.455       .  S
C1939      C1940   1.412       .  A
C1939      C1946   1.454       .  S
C1940      C1941   1.415       .  A
C1941      C1942   1.425       .  A
C1941      C1944   1.449       .  S
C1942      C1945   1.449       .  S
C1943      N1950   1.158       .  T
C1944      N1949   1.157       .  T
C1945      N1947   1.157       .  T
C1946      N1948   1.157       .  T
C1951      C1952   1.412       .  A
C1951      C1956   1.399       .  A
C1952      C1953   1.407       .  A
C1952      C1957   1.448       .  S
C1953      C1954   1.410       .  A
C1953      C1960   1.449       .  S
C1954      C1955   1.425       .  A
C1955      C1956   1.410       .  A
C1955      C1958   1.450       .  S
C1956      C1959   1.450       .  S
C1957      N1964   1.156       .  T
C1958      N1963   1.157       .  T
C1959      N1961   1.157       .  T
C1960      N1962   1.157       .  T
C1965      C1966   1.405       .  A
C1965      C1970   1.417   1_545  A
C1966      C1967   1.413   1_545  A
C1967      C1968   1.421       .  A
C1967      C1974   1.445       .  S
C1968      C1969   1.418       .  A
C1969      C1970   1.424       .  A
C1969      C1972   1.446       .  S
C1970      C1973   1.446       .  S
C1971      N1978   1.157       .  T
C1972      N1977   1.157       .  T
C1973      N4023   1.156       .  T
C1974      N1976   1.156       .  T
N1975      C4021   1.156   1_455  T
C1979      C1980   1.423       .  A
C1980      C1981   1.430       .  A
C1980      C1985   1.448       .  S
C1981      C1982   1.417       .  A
C1981      C1988   1.448       .  S
C1983      C1984   1.402       .  A
C1983      C1986   1.442       .  S
C1984      C1987   1.447       .  S
C1985      N1992   1.157       .  T
C1986      N1991   1.155       .  T
C1987      N1989   1.157       .  T
C1988      N1990   1.157       .  T
C1993      C1998   1.426       .  A
C1994      C1995   1.418       .  A
C1994      C1999   1.451   1_545  S
C1995      C2002   1.449       .  S
C1996      C3088   1.528   1_455  S
C1996      C1997   1.420       .  A
C1997      C1998   1.425       .  A
C1997      C2000   1.451       .  S
C1998      C2001   1.447       .  S
C1999      N2006   1.157       .  T
C2000      N2005   1.158       .  T
C2001      N2003   1.156       .  T
C2002      N2004   1.156   1_545  T
C2007      C2008   1.421       .  A
C2007      C2012   1.407       .  A
C2008      C2009   1.437       .  A
C2008      C2013   1.446       .  S
C2009      C2010   1.419       .  A
C2009      C2016   1.446       .  S
C2010      C2011   1.429       .  A
C2011      C2012   1.401       .  A
C2013      N2020   1.157       .  T
C2014      N2019   1.156       .  T
C2015      N2017   1.158       .  T
C2016      N2018   1.157       .  T
C2021      C2022   1.412       .  A
C2021      C4074   1.407       .  A
C2022      C4071   1.406       .  A
C2022      C2027   1.452       .  S
C2023      C4070   1.406   1_455  A
C2023      C2024   1.423       .  A
C2023      C4078   1.455   1_455  S
C2024      C2025   1.421       .  A
C2025      C2026   1.422       .  A
C2025      C2028   1.438       .  S
C2026      C4069   1.407   1_455  A
C2026      C2029   1.450       .  S
C2027      N2034   1.157       .  T
C2028      N2033   1.154       .  T
C2029      N2031   1.157       .  T
C2030      C4071   1.455       .  S
C2030      N2032   1.157       .  T
C2035      C2036   1.434       .  A
C2035      C2040   1.399       .  A
C2036      C2037   1.400       .  A
C2036      C2041   1.447       .  S
C2037      C2038   1.394       .  A
C2037      C2044   1.458       .  S
C2038      C2039   1.422       .  A
C2039      C2040   1.403       .  A
C2039      C2042   1.452       .  S
C2040      C2043   1.447       .  S
C2041      N2048   1.158       .  T
C2042      N2047   1.158       .  T
C2043      N2045   1.155       .  T
C2044      N2046   1.157       .  T
O2049     Al2057   1.942       .  S
O2049      C3088   1.275       .  A
C2050      O3084   1.280   1_545  A
C2050      O2051   1.267       .  A
C2050      C3003   1.510       .  S
O2051     Al2053   1.902       .  S
O2052     Al2053   1.989       .  S
O2052      C2054   1.276       .  A
Al2053     O2061   2.027       .  S
Al2053     O2063   1.944       .  S
Al2053     O3086   1.788   1_545  S
C2054      O3091   1.260   1_545  A
C2054      C3031   1.507       .  S
O2055     Al2057   1.928       .  S
O2055      C2065   1.265       .  A
O2056     Al2066   1.941       .  S
O2056      C2069   1.265       .  A
Al2057     O2070   1.893       .  S
Al2057     O2067   1.899       .  S
Al2057     O2062   1.748       .  S
O2058     Al2066   1.826       .  S
O2058      C2065   1.242       .  A
O2059     Al2066   1.860       .  S
O2059      C3092   1.242       .  A
O2060     Al2066   1.972       .  S
O2060      C3074   1.280       .  A
O2061      C2068   1.277       .  A
O2062     Al3077   1.788       .  S
O2062     Al2066   1.745       .  S
O2063      C2064   1.280       .  A
C2064      O3073   1.275   1_545  A
C2065      C3062   1.464       .  S
O2067      C3078   1.260       .  A
C2068      O3083   1.242   1_545  A
C2068      C4013   1.504       .  S
C2069      O2070   1.259       .  A
C2069      C3045   1.488       .  S
O2071     Al2079   1.881       .  S
O2071      C2086   1.261       .  A
C2072      O2082   1.263       .  A
C2072      O3097   1.270   1_545  A
C2072      C3017   1.529       .  S
O2073     Al2075   1.946       .  S
O2073      C3096   1.270       .  A
O2074     Al2075   1.864       .  S
O2074      C2076   1.242       .  A
Al2075     O2083   1.864       .  S
Al2075     O2085   1.989       .  S
Al2075     O2084   1.752       .  S
C2076      O2089   1.268       .  A
C2076      C2978   1.492       .  S
O2077     Al2079   1.883       .  S
O2077      C3111   1.262       .  A
O2078     Al2088   1.944       .  S
O2078      C2091   1.274       .  A
Al2079     O2092   1.938       .  S
Al2079     O2089   1.968       .  S
Al2079     O2084   1.769       .  S
O2080     Al2088   1.946       .  S
O2080      C2087   1.273       .  A
O2081     Al2088   1.975       .  S
O2081      C2090   1.275   1_545  A
O2082     Al2088   1.919       .  S
O2083      C3114   1.254       .  A
O2084     Al3112   1.770       .  S
O2085      C2086   1.275       .  A
C2086      C2961   1.513       .  S
C2087      O3101   1.262   1_545  A
C2087      C2950   1.511       .  S
Al2088     O3108   1.770   1_545  S
C2090      O3107   1.254       .  A
C2090      C3957   1.486   1_565  S
C2091      O3116   1.272   1_545  A
C2091      C3006   1.509       .  S
O2092      C3115   1.272       .  A
O2093     Al2101   1.883       .  S
O2093      C2108   1.261       .  A
C2094      O2104   1.255       .  A
C2094      O2095   1.269       .  A
C2094      C2877   1.485       .  S
O2095     Al2097   1.954       .  S
O2096     Al2097   1.857       .  S
O2096      C2098   1.243       .  A
Al2097     O2105   1.832       .  S
Al2097     O2107   1.980       .  S
Al2097     O2106   1.716       .  S
C2098      O2111   1.268       .  A
C2098      C2908   1.483       .  S
O2099     Al2101   1.842       .  S
O2099      C2109   1.260       .  A
O2100     Al2110   1.934       .  S
O2100      C2113   1.277       .  A
Al2101     O2114   1.924       .  S
Al2101     O2111   1.977       .  S
Al2101     O2106   1.738       .  S
O2102     Al2110   1.986       .  S
O2102      C2109   1.280       .  A
O2103     Al2110   2.036       .  S
O2103      C2112   1.285       .  A
O2104     Al2110   1.884       .  S
O2105      C2112   1.238       .  A
O2106     Al2110   1.770       .  S
O2107      C2108   1.275       .  A
C2108      C2919   1.491       .  S
C2109      C2891   1.480       .  S
C2112      C2849   1.505       .  S
C2113      O2114   1.268       .  A
C2113      C2863   1.509       .  S
O2115     Al2123   1.916       .  S
O2115      C2130   1.266       .  A
C2116      O2126   1.268       .  A
C2116      O3141   1.255       .  A
C2116      C2866   1.498       .  S
O2117     Al2119   1.888       .  S
O2117      C3140   1.255   1_545  A
O2118     Al2119   1.984       .  S
O2118      C2120   1.283       .  A
Al2119     O2127   2.048       .  S
Al2119     O2129   1.913       .  S
Al2119     O2128   1.764       .  S
C2120      O2133   1.262       .  A
C2120      C2807   1.502       .  S
O2121     Al2123   1.971       .  S
O2121      C2131   1.269       .  A
O2122     Al2132   1.979       .  S
O2122      C2135   1.275       .  A
Al2123     O2136   1.906       .  S
Al2123     O2133   1.867       .  S
Al2123     O2128   1.777       .  S
O2124     Al2132   1.861   1_565  S
O2124      C2131   1.241   1_565  A
O2125     Al2132   1.862       .  S
O2125      C2134   1.248       .  A
O2126     Al3156   1.945       .  S
O2127      C2134   1.287       .  A
O2128     Al2132   1.725       .  S
O2129      C2130   1.272       .  A
C2130      C2880   1.490       .  S
C2131      C2835   1.485   1_545  S
Al2132     O3150   1.945   1_545  S
C2134      C3034   1.524       .  S
C2135      O2136   1.266       .  A
C2135      C2821   1.503       .  S
O2137     Al2145   1.944       .  S
O2137      C2152   1.273       .  A
C2138      O2148   1.278       .  A
C2138      O2139   1.266       .  A
C2138      C2737   1.517       .  S
O2139     Al2141   1.915       .  S
O2140     Al2141   1.948       .  S
O2140      C2142   1.271       .  A
Al2141     O2149   1.976       .  S
Al2141     O2151   1.927       .  S
Al2141     O2150   1.779       .  S
C2142      O2155   1.262       .  A
C2142      C2765   1.493       .  S
O2143     Al2145   1.936       .  S
O2143      C2153   1.264       .  A
O2144     Al2154   1.967       .  S
O2144      C2157   1.272       .  A
Al2145     O2158   1.904       .  S
Al2145     O2155   1.904       .  S
Al2145     O2150   1.771       .  S
O2146     Al2154   1.839       .  S
O2146      C2153   1.240       .  A
O2147     Al2154   1.869       .  S
O2147      C2156   1.249       .  A
O2148     Al2154   1.974       .  S
O2149      C2156   1.271       .  A
O2150     Al2154   1.744       .  S
O2151      C2152   1.273       .  A
C2152      C2751   1.490       .  S
C2153      C2796   1.481       .  S
C2156      C2723   1.489       .  S
C2157      O2158   1.266       .  A
C2157      C2779   1.506       .  S
O2159     Al2167   1.878       .  S
O2159      C2174   1.264       .  A
C2160      O2170   1.258       .  A
C2160      O2161   1.273       .  A
C2160      C2754   1.502       .  S
O2161     Al2163   1.957       .  S
O2162     Al2163   1.843       .  S
O2162      C2164   1.241       .  A
Al2163     O2171   1.850       .  S
Al2163     O2173   1.993       .  S
Al2163     O2172   1.757       .  S
C2164      O2177   1.261       .  A
C2164      C2712   1.485       .  S
O2165     Al2167   1.891       .  S
O2165      C2175   1.266       .  A
O2166     Al2176   1.939       .  S
O2166      C2179   1.270       .  A
Al2167     O2180   1.925       .  S
Al2167     O2177   1.955       .  S
Al2167     O2172   1.766       .  S
O2168     Al2176   1.937       .  S
O2168      C2175   1.270       .  A
O2169     Al2176   1.949       .  S
O2169      C2178   1.271       .  A
O2170     Al2176   1.901       .  S
O2171      C2178   1.249       .  A
O2172     Al2176   1.782       .  S
O2173      C2174   1.278       .  A
C2174      C2695   1.522       .  S
C2175      C2852   1.470       .  S
C2178      C2681   1.482       .  S
C2179      O2180   1.267       .  A
O2181     Al2189   1.893       .  S
O2181      C2196   1.260       .  A
C2182      O2192   1.267       .  A
C2182      O2183   1.273       .  A
C2182      C2625   1.488       .  S
O2183     Al2185   1.946       .  S
O2184     Al2185   1.938   1_554  S
O2184      C2186   1.259       .  A
Al2185     O2193   1.952       .  S
Al2185     O2195   1.943       .  S
Al2185     O2194   1.811       .  S
C2186      O2199   1.258       .  A
C2186      C2642   1.497       .  S
O2187     Al2189   1.926       .  S
O2187      C2197   1.256       .  A
O2188     Al2198   1.945       .  S
O2188      C2201   1.279       .  A
Al2189     O2202   1.906       .  S
Al2189     O2199   1.870       .  S
Al2189     O2194   1.786   1_554  S
O2190     Al2198   1.803       .  S
O2190      C2197   1.238   1_556  A
O2191     Al2198   1.836       .  S
O2191      C2200   1.240       .  A
O2192     Al2198   1.893       .  S
O2193      C2200   1.260       .  A
O2194     Al2198   1.784       .  S
O2195      C2196   1.267   1_556  A
C2196      C2614   1.499       .  S
C2197      C2653   1.460       .  S
C2200      C2768   1.481       .  S
C2201      O2202   1.267   1_556  A
C2201      C2670   1.513       .  S
O2203     Al2211   1.906   1_554  S
O2203      C2218   1.266       .  A
C2204      O3238   1.259       .  A
C2204      O2205   1.285       .  A
C2204      C2611   1.507       .  S
O2205     Al3231   1.988       .  S
O2206     Al2207   1.830       .  S
O2206      C2208   1.244       .  A
Al2207     O3229   1.988   1_545  S
Al2207     O2215   1.855       .  S
Al2207     O2217   1.973       .  S
Al2207     O2216   1.739       .  S
C2208      O2221   1.260   1_554  A
C2208      C2597   1.459       .  S
O2209     Al2211   1.869       .  S
O2209      C2219   1.263       .  A
O2210     Al2220   1.933       .  S
O2210      C2223   1.278   1_554  A
Al2211     O2224   1.922       .  S
Al2211     O2221   1.921       .  S
Al2211     O2216   1.749   1_556  S
O2212     Al2220   1.975   1_556  S
O2212      C2219   1.274       .  A
O2213     Al2220   2.009       .  S
O2213      C2222   1.274       .  A
O2214     Al2220   1.882       .  S
O2214      C3228   1.259   1_545  A
O2215      C2222   1.241       .  A
O2216     Al2220   1.793       .  S
O2217      C2218   1.274       .  A
C2218      C2586   1.506       .  S
C2219      C2569   1.496       .  S
C2222      C2947   1.498       .  S
C2223      O2224   1.268       .  A
C2223      C2628   1.488       .  S
O2225     Al2233   1.936       .  S
O2225      C2240   1.268       .  A
C2226      O2236   1.272       .  A
C2226      O2227   1.256       .  A
C2226      C2555   1.516       .  S
O2227     Al2229   1.881       .  S
O2228     Al2229   1.955       .  S
O2228      C2230   1.274       .  A
Al2229     O2237   1.986       .  S
Al2229     O2239   1.895       .  S
Al2229     O2238   1.771       .  S
C2230      O2243   1.260       .  A
C2230      C2726   1.497       .  S
O2231     Al2233   1.959       .  S
O2231      C2241   1.266       .  A
O2232     Al2242   1.984       .  S
O2232      C2245   1.278       .  A
Al2233     O2246   1.896       .  S
Al2233     O2243   1.873       .  S
Al2233     O2238   1.776       .  S
O2234     Al2242   1.848       .  S
O2234      C2241   1.244       .  A
O2235     Al2242   1.889       .  S
O2235      C2244   1.257       .  A
O2236     Al2242   1.943       .  S
O2237      C2244   1.277       .  A
O2238     Al2242   1.745       .  S
O2239      C2240   1.268       .  A
C2240      C2541   1.474       .  S
C2241      C2905   1.477       .  S
C2244      C2530   1.498       .  S
C2245      O2246   1.265       .  A
C2245      C2824   1.510       .  S
O2247     Al2255   1.880       .  S
O2247      C2262   1.263       .  A
C2248      O3282   1.255   1_545  A
C2248      O3273   1.271   1_545  A
C2248      C2544   1.486       .  S
O2249     Al2251   1.937       .  S
O2249      C3272   1.271       .  A
O2250     Al2251   1.835       .  S
O2250      C2252   1.233       .  A
Al2251     O2259   1.853       .  S
Al2251     O2261   1.982       .  S
Al2251     O2260   1.730       .  S
C2252      O2265   1.265       .  A
C2252      C2838   1.495       .  S
O2253     Al2255   1.885       .  S
O2253      C2263   1.269       .  A
O2254     Al2264   1.945       .  S
O2254      C2267   1.277       .  A
Al2255     O2268   1.917       .  S
Al2255     O2265   1.990       .  S
Al2255     O2260   1.777       .  S
O2256     Al2264   1.978       .  S
O2256      C2263   1.284       .  A
O2257     Al2264   2.017       .  S
O2257      C2266   1.278       .  A
O2258     Al2264   1.881       .  S
O2258      C3272   1.255       .  A
O2259      C2266   1.245       .  A
O2260     Al2264   1.768       .  S
O2261      C2262   1.279       .  A
C2262      C2922   1.490       .  S
C2263      C2936   1.516       .  S
C2266      C2513   1.499       .  S
C2267      O2268   1.264       .  A
C2267      C2558   1.514       .  S
O2269     Al3301   1.935       .  S
O2269      C2284   1.268       .  A
C2270      O3304   1.264       .  A
C2270      O2271   1.254       .  A
C2270      C2474   1.507       .  S
O2271     Al2273   1.883       .  S
O2272     Al2273   1.967       .  S
O2272      C2274   1.276       .  A
Al2273     O2281   2.001       .  S
Al2273     O2283   1.889       .  S
Al2273     O3306   1.771       .  S
C2274      O2287   1.262       .  A
C2274      C2499   1.522       .  S
O2275     Al2277   1.945       .  S
O2275      C2285   1.269       .  A
O2276     Al2286   1.945       .  S
O2276      C2289   1.267       .  A
Al2277     O3293   1.935   1_545  S
Al2277     O2290   1.928       .  S
Al2277     O3311   1.891   1_545  S
Al2277     O2282   1.773       .  S
O2278     Al2286   1.859       .  S
O2278      C2285   1.250       .  A
O2279     Al2286   1.860       .  S
O2279      C3312   1.253   1_545  A
O2280     Al2286   1.929   1_565  S
O2280      C3294   1.264       .  A
O2281      C2288   1.282       .  A
O2282     Al3297   1.771   1_545  S
O2282     Al2286   1.755       .  S
O2283      C2284   1.264       .  A
C2284      C2485   1.483       .  S
C2285      C2709   1.479       .  S
O2287     Al3301   1.891       .  S
C2288      O3303   1.253       .  A
C2288      C2810   1.500       .  S
C2289      O2290   1.270       .  A
C2289      C2782   1.513       .  S
O2291     Al2299   1.889       .  S
O2291      C2306   1.261       .  A
C2292      O2302   1.255       .  A
C2292      O3317   1.272       .  A
C2292      C2488   1.485       .  S
O2293     Al2295   1.951   1_565  S
O2293      C3316   1.272       .  A
O2294     Al2295   1.840       .  S
O2294      C2296   1.236       .  A
Al2295     O2303   1.855       .  S
Al2295     O2305   1.996       .  S
Al2295     O3328   1.733   1_545  S
C2296      O2309   1.265       .  A
C2296      C2793   1.465       .  S
O2297     Al3323   1.844       .  S
O2297      C2307   1.259       .  A
O2298     Al2308   1.939       .  S
O2298      C2311   1.278       .  A
Al2299     O3321   1.844   1_545  S
Al2299     O3336   1.911   1_545  S
Al2299     O2309   1.939       .  S
Al2299     O3328   1.744   1_545  S
O2300     Al2308   2.009       .  S
O2300      C2307   1.283       .  A
O2301     Al2308   2.046       .  S
O2301      C2310   1.283       .  A
O2302     Al2308   1.880       .  S
O2303      C3334   1.244   1_545  A
O2304     Al3319   1.733       .  S
O2304     Al3323   1.744       .  S
O2304     Al2308   1.780       .  S
O2305      C2306   1.278       .  A
C2306      C2698   1.501       .  S
C2307      C2516   1.505       .  S
C2310      O3327   1.244       .  A
C2310      C2572   1.505       .  S
C2311      O2312   1.265       .  A
O2312     Al3323   1.911       .  S
O2313     Al2321   1.871       .  S
O2313      C2328   1.256       .  A
C2314      O2324   1.274       .  A
C2314      O2315   1.275       .  A
C2314      C2446   1.473       .  S
O2315     Al2317   1.936       .  S
O2316     Al2317   1.976       .  S
O2316      C2318   1.277       .  A
Al2317     O2325   2.049       .  S
Al2317     O2327   1.913       .  S
Al2317     O2326   1.771       .  S
C2318      O2331   1.255       .  A
C2318      C2527   1.517       .  S
O2319     Al2321   1.928       .  S
O2319      C2329   1.251       .  A
O2320     Al2330   1.967       .  S
O2320      C2333   1.286       .  A
Al2321     O2334   1.915       .  S
Al2321     O2331   1.865       .  S
Al2321     O2326   1.764       .  S
O2322     Al2330   1.809       .  S
O2322      C2329   1.237       .  A
O2323     Al2330   1.855       .  S
O2323      C2332   1.232       .  A
O2324     Al2330   1.895       .  S
O2325      C2332   1.281       .  A
O2326     Al2330   1.757       .  S
O2327      C2328   1.263       .  A
C2329      C2975   1.456       .  S
C2332      C2639   1.522       .  S
C2333      O2334   1.275       .  A
C2333      C3048   1.513       .  S
O2335     Al2343   1.911       .  S
O2335      C2350   1.265       .  A
C2336      O2346   1.251       .  A
C2336      O2337   1.271       .  A
C2336      C2460   1.494       .  S
O2337     Al2339   1.981       .  S
O2338     Al2339   1.838       .  S
O2338      C2340   1.241       .  A
Al2339     O2347   1.837       .  S
Al2339     O2349   1.960       .  S
Al2339     O2348   1.706       .  S
C2340      O2353   1.270       .  A
C2340      C3059   1.481       .  S
O2341     Al2343   1.876       .  S
O2341      C2351   1.266       .  A
O2342     Al2352   1.895       .  S
O2342      C2355   1.271       .  A
Al2343     O2356   1.923       .  S
Al2343     O2353   1.977       .  S
Al2343     O2348   1.764       .  S
O2344     Al2352   1.957       .  S
O2344      C2351   1.280       .  A
O2345     Al2352   2.047       .  S
O2345      C2354   1.279       .  A
O2346     Al2352   1.870       .  S
O2347      C2354   1.235       .  A
O2348     Al2352   1.789       .  S
O2349      C2350   1.267       .  A
C2350      C2964   1.498       .  S
C2351      C2429   1.491       .  S
C2354      C2894   1.503       .  S
C2355      O2356   1.271       .  A
C2355      C2443   1.471       .  S
O2357     Al2365   1.905   1_554  S
O2357      C2372   1.269       .  A
C2358      O2368   1.260       .  A
C2358      O2359   1.269       .  A
C2358      C2418   1.517       .  S
O2359     Al2361   1.934       .  S
O2360     Al2361   1.864       .  S
O2360      C2362   1.243   1_554  A
Al2361     O2369   1.849       .  S
Al2361     O2371   1.970       .  S
Al2361     O2370   1.751       .  S
C2362      O2375   1.265       .  A
C2362      C2656   1.497   1_556  S
O2363     Al2365   1.898       .  S
O2363      C2373   1.268       .  A
O2364     Al2374   1.916       .  S
O2364      C2377   1.269   1_554  A
Al2365     O2378   1.937       .  S
Al2365     O2375   1.963       .  S
Al2365     O2370   1.777   1_556  S
O2366     Al2374   1.937   1_556  S
O2366      C2373   1.271       .  A
O2367     Al2374   1.969       .  S
O2367      C2376   1.273       .  A
O2368     Al2374   1.907       .  S
O2369      C2376   1.250       .  A
O2370     Al2374   1.771       .  S
O2371      C2372   1.274       .  A
C2372      C2583   1.518       .  S
C2373      C2684   1.494       .  S
C2376      C2432   1.481       .  S
C2377      O2378   1.267       .  A
C2377      C2401   1.486       .  S
O2379     Al2387   1.920       .  S
O2379      C2394   1.271       .  A
C2380      O3414   1.281       .  A
C2380      O3405   1.260       .  A
C2380      C2404   1.500   1_565  S
O2381     Al2383   1.894       .  S
O2381      C3404   1.260       .  A
O2382     Al2383   1.973   1_554  S
O2382      C2384   1.276       .  A
Al2383     O2391   2.034       .  S
Al2383     O2393   1.945   1_556  S
Al2383     O2392   1.787       .  S
C2384      O2397   1.263       .  A
C2384      C2992   1.526       .  S
O2385     Al2387   1.942       .  S
O2385      C2395   1.268       .  A
O2386     Al2396   1.972       .  S
O2386      C2399   1.272       .  A
Al2387     O2400   1.900       .  S
Al2387     O2397   1.894       .  S
Al2387     O2392   1.759   1_554  S
O2388     Al2396   1.829       .  S
O2388      C2395   1.243   1_556  A
O2389     Al2396   1.855       .  S
O2389      C2398   1.242       .  A
O2390     Al2396   1.984       .  S
O2390      C3404   1.281       .  A
O2391      C2398   1.278       .  A
O2392     Al2396   1.750       .  S
O2393      C2394   1.281       .  A
C2394      C2415   1.523       .  S
C2395      C2600   1.465       .  S
C2398      C2502   1.510       .  S
C2399      O2400   1.261   1_556  A
C2399      C2667   1.501       .  S
C2401      C2402   1.412       .  A
C2401      C2406   1.404   1_556  A
C2402      C2403   1.419       .  A
C2402      C2407   1.445       .  S
C2403      C2404   1.412       .  A
C2403      C2410   1.443       .  S
C2404      C2405   1.413   1_556  A
C2405      C2406   1.407       .  A
C2405      C2408   1.439       .  S
C2406      C2409   1.450       .  S
C2407      N2414   1.156       .  T
C2408      N2413   1.153       .  T
C2409      N2411   1.155       .  T
C2410      N2412   1.157       .  T
C2415      C2416   1.429       .  A
C2415      C2420   1.419       .  A
C2416      C2417   1.417       .  A
C2416      C2421   1.452       .  S
C2417      C2418   1.413       .  A
C2417      C2424   1.451       .  S
C2418      C2419   1.423       .  A
C2419      C2420   1.422       .  A
C2419      C2422   1.448   1_554  S
C2420      C2423   1.451   1_554  S
C2421      N2428   1.157       .  T
C2422      N2427   1.157       .  T
C2423      N2425   1.158       .  T
C2424      N2426   1.157       .  T
C2429      C2430   1.411       .  A
C2429      C2434   1.421       .  A
C2430      C2431   1.411       .  A
C2430      C2435   1.451       .  S
C2431      C2432   1.415       .  A
C2431      C2438   1.447       .  S
C2432      C2433   1.409       .  A
C2433      C2434   1.411       .  A
C2433      C2436   1.451       .  S
C2434      C2437   1.453       .  S
C2435      N2442   1.157       .  T
C2436      N2441   1.157       .  T
C2437      N2439   1.157       .  T
C2438      N2440   1.156       .  T
C2443      C2444   1.413       .  A
C2443      C2448   1.410       .  A
C2444      C2445   1.408       .  A
C2444      C2449   1.451       .  S
C2445      C2446   1.411       .  A
C2445      C2452   1.451       .  S
C2446      C2447   1.410       .  A
C2447      C2448   1.403       .  A
C2447      C2450   1.446       .  S
C2448      C2451   1.453       .  S
C2449      N2456   1.157       .  T
C2450      N2455   1.154       .  T
C2451      N2453   1.157       .  T
C2452      N2454   1.157       .  T
C2457      C2458   1.419       .  A
C2457      C2462   1.412       .  A
C2458      C2459   1.409       .  A
C2458      C2463   1.452       .  S
C2459      C2460   1.406       .  A
C2459      C2466   1.448       .  S
C2460      C2461   1.415       .  A
C2461      C2462   1.411       .  A
C2461      C2464   1.446       .  S
C2462      C2465   1.451       .  S
C2464      N2469   1.156       .  T
C2465      N2467   1.157       .  T
C2466      N2468   1.158       .  T
C2471      C2472   1.429       .  A
C2471      C2476   1.415       .  A
C2472      C2473   1.409       .  A
C2472      C3501   1.456       .  S
C2473      C2474   1.417       .  A
C2473      C3504   1.456       .  S
C2474      C2475   1.425       .  A
C2475      C2476   1.417       .  A
C2475      C2478   1.453       .  S
C2476      C2479   1.452       .  S
C2477      C3496   1.456   1_545  S
C2478      N2483   1.157       .  T
C2479      N2481   1.158       .  T
C2480      C3497   1.456   1_545  S
C2480      N2482   1.158       .  T
C2485      C2486   1.406       .  A
C2485      C2490   1.413       .  A
C2486      C2487   1.404       .  A
C2486      C2491   1.449       .  S
C2487      C2488   1.414       .  A
C2487      C2494   1.448       .  S
C2488      C2489   1.412       .  A
C2489      C2490   1.417       .  A
C2489      C2492   1.449       .  S
C2490      C2493   1.448       .  S
C2491      N2498   1.155       .  T
C2492      N2497   1.158       .  T
C2493      N2495   1.157       .  T
C2494      N2496   1.156       .  T
C2499      C2500   1.428       .  A
C2499      C2504   1.420       .  A
C2500      C2501   1.419       .  A
C2500      C3529   1.452       .  S
C2501      C2502   1.402       .  A
C2501      C2508   1.437       .  S
C2502      C2503   1.411       .  A
C2503      C2504   1.422       .  A
C2503      C2506   1.440       .  S
C2504      C2507   1.448       .  S
C2505      C3524   1.452   1_545  S
C2505      N2512   1.158       .  T
C2506      N2511   1.154       .  T
C2507      N2509   1.157       .  T
C2508      N3534   1.153       .  T
N2510      C3532   1.153       .  T
C2513      C2514   1.411       .  A
C2513      C2518   1.419       .  A
C2514      C2515   1.397       .  A
C2514      C3543   1.442       .  S
C2515      C2516   1.413       .  A
C2515      C3546   1.457       .  S
C2516      C2517   1.418       .  A
C2517      C2518   1.432       .  A
C2517      C2520   1.444       .  S
C2518      C2521   1.446       .  S
C2519      C3538   1.442   1_545  S
C2519      N2526   1.156       .  T
C2520      N2525   1.156       .  T
C2521      N2523   1.157       .  T
C2522      C3539   1.457   1_545  S
C2522      N2524   1.158       .  T
C2527      C2528   1.430       .  A
C2527      C2532   1.419       .  A
C2528      C2529   1.405       .  A
C2528      C2533   1.451       .  S
C2529      C2530   1.400       .  A
C2529      C2536   1.451       .  S
C2530      C2531   1.417       .  A
C2531      C2532   1.429       .  A
C2531      C2534   1.445       .  S
C2532      C2535   1.448       .  S
C2533      N2540   1.157       .  T
C2534      N2539   1.157       .  T
C2535      N2537   1.157       .  T
C2536      N2538   1.157       .  T
C2541      C2542   1.411       .  A
C2541      C2546   1.403       .  A
C2542      C2543   1.418       .  A
C2542      C2547   1.448       .  S
C2543      C2544   1.415       .  A
C2543      C2550   1.449       .  S
C2544      C2545   1.412       .  A
C2545      C2546   1.400       .  A
C2545      C2548   1.440       .  S
C2546      C2549   1.453       .  S
C2547      N2554   1.157       .  T
C2548      N2553   1.154       .  T
C2549      N2551   1.155       .  T
C2550      N2552   1.157       .  T
C2555      C2556   1.417       .  A
C2555      C2560   1.430       .  A
C2556      C2557   1.411       .  A
C2556      C2561   1.453       .  S
C2557      C2558   1.426       .  A
C2557      C2564   1.451       .  S
C2558      C2559   1.414       .  A
C2559      C2560   1.420       .  A
C2559      C2562   1.452       .  S
C2560      C2563   1.451       .  S
C2561      N2568   1.157       .  T
C2562      N2567   1.158       .  T
C2563      N2565   1.157       .  T
C2564      N2566   1.157       .  T
C2569      C2570   1.420   1_545  A
C2569      C2574   1.402       .  A
C2570      C3595   1.433       .  A
C2570      C3599   1.446       .  S
C2571      C3594   1.433       .  A
C2571      C2572   1.421       .  A
C2571      C2578   1.446       .  S
C2572      C3597   1.419       .  A
C2573      C3596   1.419       .  A
C2573      C2574   1.391   1_565  A
C2573      C2576   1.438       .  S
C2574      C2577   1.458       .  S
C2575      C3594   1.446       .  S
C2575      N2582   1.157       .  T
C2576      N2581   1.156       .  T
C2577      N2579   1.157       .  T
C2578      N2580   1.157       .  T
C2583      C2584   1.420   1_554  A
C2583      C2588   1.425       .  A
C2584      C2585   1.413       .  A
C2584      C2589   1.454       .  S
C2585      C2586   1.419   1_556  A
C2585      C2592   1.451       .  S
C2586      C2587   1.413       .  A
C2587      C2588   1.426       .  A
C2587      C2590   1.449       .  S
C2588      C2591   1.450       .  S
C2589      N2596   1.158       .  T
C2590      N2595   1.157       .  T
C2591      N2593   1.157       .  T
C2592      N2594   1.157       .  T
C2597      C3622   1.401   1_554  A
C2597      C2602   1.420       .  A
C2598      C3621   1.401   1_556  A
C2598      C2599   1.400       .  A
C2598      C2603   1.454       .  S
C2599      C2600   1.426   1_556  A
C2599      C2606   1.452       .  S
C2600      C3625   1.398       .  A
C2601      C3624   1.398       .  A
C2601      C2602   1.395   1_565  A
C2601      C2604   1.447   1_565  S
C2602      C2605   1.454       .  S
C2603      N2610   1.157       .  T
C2604      N2609   1.155       .  T
C2605      N2607   1.158       .  T
C2606      N2608   1.158       .  T
C2611      C2612   1.412       .  A
C2611      C2616   1.416       .  A
C2612      C2613   1.410       .  A
C2612      C2617   1.445   1_554  S
C2613      C2614   1.408       .  A
C2613      C2620   1.445   1_554  S
C2614      C2615   1.414       .  A
C2615      C2616   1.425       .  A
C2615      C2618   1.447       .  S
C2616      C2619   1.443       .  S
C2617      N2624   1.156       .  T
C2618      N2623   1.157       .  T
C2619      N2621   1.156       .  T
C2620      N2622   1.154       .  T
C2625      C2626   1.411       .  A
C2625      C2630   1.414   1_556  A
C2626      C2627   1.418       .  A
C2626      C2631   1.448       .  S
C2627      C2628   1.416       .  A
C2627      C2634   1.450       .  S
C2628      C2629   1.408   1_556  A
C2629      C2630   1.409       .  A
C2629      C2632   1.447       .  S
C2630      C2633   1.451       .  S
C2631      N2638   1.157       .  T
C2632      N2637   1.155       .  T
C2633      N2635   1.156       .  T
C2634      N2636   1.157       .  T
C2639      C2640   1.441       .  A
C2639      C2644   1.420       .  A
C2640      C2641   1.397       .  A
C2640      C2645   1.453       .  S
C2641      C2642   1.395       .  A
C2641      C2648   1.461       .  S
C2642      C2643   1.418       .  A
C2643      C2644   1.436       .  A
C2643      C2646   1.445       .  S
C2644      C2647   1.446       .  S
C2645      N2652   1.158       .  T
C2646      N2651   1.157       .  T
C2647      N2649   1.157       .  T
C2648      N2650   1.157       .  T
C2653      C2654   1.405       .  A
C2653      C2658   1.410       .  A
C2654      C2655   1.410       .  A
C2654      C2659   1.451       .  S
C2655      C2656   1.423       .  A
C2655      C2662   1.453       .  S
C2656      C2657   1.416   1_554  A
C2657      C2658   1.408   1_556  A
C2657      C2660   1.450       .  S
C2658      C2661   1.450       .  S
C2659      N2666   1.157       .  T
C2660      N2665   1.157       .  T
C2661      N2663   1.157       .  T
C2662      N2664   1.158       .  T
C2667      C2668   1.413       .  A
C2667      C2672   1.413   1_556  A
C2668      C2669   1.424       .  A
C2668      C2673   1.442       .  S
C2669      C2670   1.419       .  A
C2669      C2676   1.450       .  S
C2670      C2671   1.425   1_556  A
C2671      C2672   1.411       .  A
C2671      C2674   1.455       .  S
C2672      C2675   1.452       .  S
C2673      N2680   1.154       .  T
C2674      N2679   1.158       .  T
C2675      N2677   1.157       .  T
C2676      N2678   1.157       .  T
C2681      C2682   1.401       .  A
C2681      C2686   1.409       .  A
C2682      C2683   1.409       .  A
C2682      C2687   1.439       .  S
C2683      C2684   1.418       .  A
C2683      C2690   1.451       .  S
C2684      C2685   1.418       .  A
C2685      C2686   1.411       .  A
C2685      C2688   1.448       .  S
C2686      C2689   1.450       .  S
C2687      N2694   1.153       .  T
C2688      N2693   1.157       .  T
C2689      N2691   1.157   1_655  T
C2690      N2692   1.158       .  T
C2695      C2696   1.424       .  A
C2696      C2701   1.449       .  S
C2697      C2698   1.413       .  A
C2698      C2699   1.412       .  A
C2699      C2700   1.411       .  A
C2699      C2702   1.453       .  S
C2700      C2703   1.455       .  S
C2701      N2708   1.158       .  T
C2702      N2707   1.157       .  T
C2703      N2705   1.158       .  T
C2704      N2706   1.157       .  T
C2709      C2710   1.414       .  A
C2709      C2714   1.406       .  A
C2710      C2711   1.406       .  A
C2710      C2715   1.452       .  S
C2711      C2712   1.414       .  A
C2711      C2718   1.449       .  S
C2712      C2713   1.418       .  A
C2713      C2714   1.401       .  A
C2713      C2716   1.451       .  S
C2714      C2717   1.450       .  S
C2715      N2722   1.157       .  T
C2716      N2721   1.156       .  T
C2717      N2719   1.157       .  T
C2718      N2720   1.157       .  T
C2723      C2724   1.409       .  A
C2723      C2728   1.414       .  A
C2724      C2725   1.412       .  A
C2724      C2729   1.449       .  S
C2725      C2726   1.421       .  A
C2725      C2732   1.452       .  S
C2726      C2727   1.413       .  A
C2727      C2728   1.413       .  A
C2727      C2730   1.450       .  S
C2728      C2731   1.447       .  S
C2729      N2736   1.157       .  T
C2730      N2735   1.157       .  T
C2731      N2733   1.157       .  T
C2732      N2734   1.157       .  T
C2737      C2738   1.416       .  A
C2737      C2742   1.423       .  A
C2738      C2739   1.404       .  A
C2738      C2743   1.438       .  S
C2739      C2740   1.399       .  A
C2739      C2746   1.447       .  S
C2740      C2741   1.412       .  A
C2741      C2742   1.429       .  A
C2741      C2744   1.448       .  S
C2742      C2745   1.442       .  S
C2743      N2750   1.155       .  T
C2744      N2749   1.157       .  T
C2745      N2747   1.155       .  T
C2746      N2748   1.156       .  T
C2751      C2752   1.405       .  A
C2751      C2756   1.406       .  A
C2752      C2753   1.411       .  A
C2752      C2757   1.447       .  S
C2753      C2754   1.419       .  A
C2753      C2760   1.448       .  S
C2754      C2755   1.416       .  A
C2755      C2756   1.420       .  A
C2755      C2758   1.441       .  S
C2756      C2759   1.446       .  S
C2757      N2764   1.155       .  T
C2758      N2763   1.155       .  T
C2759      N2761   1.157       .  T
C2760      N2762   1.157       .  T
C2765      C2766   1.406       .  A
C2765      C2770   1.416       .  A
C2766      C2767   1.408       .  A
C2766      C2771   1.445       .  S
C2767      C2768   1.413       .  A
C2767      C2774   1.447       .  S
C2768      C2769   1.409       .  A
C2769      C2770   1.418       .  A
C2769      C2772   1.449       .  S
C2770      C2773   1.445       .  S
C2771      N2778   1.154       .  T
C2772      N2777   1.157       .  T
C2773      N2775   1.155       .  T
C2774      N2776   1.155       .  T
C2779      C2780   1.419       .  A
C2779      C2784   1.413       .  A
C2780      C2781   1.415       .  A
C2780      C2785   1.450       .  S
C2781      C2782   1.416       .  A
C2781      C2788   1.452       .  S
C2782      C2783   1.424       .  A
C2783      C2784   1.423       .  A
C2783      C2786   1.450       .  S
C2784      C2787   1.450       .  S
C2785      N2792   1.157       .  T
C2786      N2791   1.157       .  T
C2787      N2789   1.157       .  T
C2788      N2790   1.158       .  T
C2793      C2794   1.392       .  A
C2793      C2798   1.418       .  A
C2794      C2795   1.399       .  A
C2794      C2799   1.457       .  S
C2795      C2796   1.437       .  A
C2795      C2802   1.450       .  S
C2796      C2797   1.407       .  A
C2797      C2798   1.399       .  A
C2797      C2800   1.454       .  S
C2798      C2801   1.451       .  S
C2799      N2806   1.157       .  T
C2800      N2805   1.157       .  T
C2801      N2803   1.157       .  T
C2802      N2804   1.158       .  T
C2807      C2808   1.423   1_545  A
C2807      C2812   1.410       .  A
C2808      C2809   1.415       .  A
C2808      C2813   1.453       .  S
C2809      C3834   1.413       .  A
C2809      C2816   1.451       .  S
C2810      C3833   1.413       .  A
C2810      C3835   1.423       .  A
C2811      C3834   1.423   1_545  A
C2811      C2812   1.417       .  A
C2811      C3838   1.450       .  S
C2812      C2815   1.450       .  S
C2813      N2820   1.157       .  T
C2814      C3835   1.450       .  S
C2814      N2819   1.157       .  T
C2815      N2817   1.157       .  T
C2816      N2818   1.157       .  T
C2821      C2826   1.416       .  A
C2822      C2823   1.413       .  A
C2822      C2827   1.451       .  S
C2823      C2824   1.421       .  A
C2823      C2830   1.452       .  S
C2824      C2825   1.418       .  A
C2825      C2828   1.449       .  S
C2826      C2829   1.449       .  S
C2827      N2834   1.157       .  T
C2828      N2833   1.158       .  T
C2829      N2831   1.157       .  T
C2830      N2832   1.157       .  T
C2835      C3864   1.418       .  A
C2836      C2837   1.402       .  A
C2836      C2841   1.449       .  S
C2837      C3862   1.429   1_545  A
C2837      C2844   1.452       .  S
C2838      C3861   1.429       .  A
C2838      C2839   1.407       .  A
C2839      C2842   1.446       .  S
C2840      C3859   1.418       .  A
C2840      C2843   1.453       .  S
C2841      N2848   1.157       .  T
C2842      N2847   1.157       .  T
C2843      N2845   1.157       .  T
C2844      N2846   1.157       .  T
C2849      C2850   1.440       .  A
C2849      C2854   1.415       .  A
C2850      C2851   1.393       .  A
C2850      C2855   1.455       .  S
C2851      C2852   1.391       .  A
C2851      C2858   1.459       .  S
C2852      C2853   1.413       .  A
C2853      C2854   1.422       .  A
C2853      C2856   1.446       .  S
C2854      C2857   1.448       .  S
C2855      N2862   1.159       .  T
C2856      N2861   1.157       .  T
C2857      N2859   1.157       .  T
C2858      N2860   1.157       .  T
C2863      C2864   1.422       .  A
C2863      C2868   1.414       .  A
C2864      C2865   1.409       .  A
C2864      C2869   1.446       .  S
C2865      C2866   1.407       .  A
C2865      C2872   1.451       .  S
C2866      C2867   1.420       .  A
C2867      C2868   1.417       .  A
C2867      C2870   1.445       .  S
C2868      C2871   1.450       .  S
C2869      N2876   1.156       .  T
C2870      N2875   1.156       .  T
C2871      N2873   1.158       .  T
C2872      N2874   1.157       .  T
C2877      C2878   1.408       .  A
C2877      C2882   1.417       .  A
C2878      C2879   1.415       .  A
C2878      C2883   1.450       .  S
C2879      C2880   1.420       .  A
C2879      C2886   1.451       .  S
C2880      C2881   1.411       .  A
C2881      C2882   1.410       .  A
C2881      C2884   1.454       .  S
C2882      C2885   1.449       .  S
C2883      N2890   1.157       .  T
C2884      N2889   1.158       .  T
C2885      N2887   1.156       .  T
C2886      N2888   1.157       .  T
C2891      C2892   1.414       .  A
C2891      C2896   1.404       .  A
C2892      C2893   1.428       .  A
C2892      C2897   1.447       .  S
C2893      C2894   1.418       .  A
C2893      C2900   1.447       .  S
C2894      C2895   1.432       .  A
C2895      C2896   1.391       .  A
C2895      C2898   1.449       .  S
C2896      C2899   1.466       .  S
C2897      N2904   1.157       .  T
C2898      N2903   1.160       .  T
C2899      N2901   1.158       .  T
C2900      N2902   1.157       .  T
C2905      C2906   1.403       .  A
C2905      C2910   1.415       .  A
C2906      C2911   1.447       .  S
C2907      C2908   1.420       .  A
C2907      C2914   1.452       .  S
C2909      C2910   1.402       .  A
C2909      C2912   1.447       .  S
C2910      C2913   1.452       .  S
C2911      N2918   1.157       .  T
C2912      N2917   1.156       .  T
C2913      N2915   1.157       .  T
C2914      N2916   1.157       .  T
C2919      C2924   1.414       .  A
C2920      C2921   1.419       .  A
C2921      C2922   1.412       .  A
C2921      C2928   1.450       .  S
C2922      C2923   1.416       .  A
C2923      C2926   1.451       .  S
C2924      C2927   1.454       .  S
C2925      N2932   1.157       .  T
C2926      N2931   1.157       .  T
C2927      N2929   1.157       .  T
C2928      N2930   1.157       .  T
C2933      C3114   1.486       .  S
C2933      C2934   1.405       .  A
C2933      C2938   1.410       .  A
C2934      C2935   1.412       .  A
C2934      C2939   1.453       .  S
C2935      C2936   1.430       .  A
C2935      C2942   1.449       .  S
C2936      C2937   1.424       .  A
C2937      C2938   1.418       .  A
C2937      C2940   1.450       .  S
C2938      C2941   1.451       .  S
C2939      N3970   1.157       .  T
C2940      N2945   1.157       .  T
C2941      N2943   1.157       .  T
C2942      N2944   1.158       .  T
N2946      C3963   1.157       .  T
C2947      C2948   1.409       .  A
C2947      C2952   1.414       .  A
C2948      C2949   1.415       .  A
C2948      C3977   1.442   1_545  S
C2949      C2950   1.425       .  A
C2949      C3980   1.454   1_545  S
C2950      C2951   1.419       .  A
C2951      C2952   1.415       .  A
C2951      C2954   1.451       .  S
C2952      C2955   1.448       .  S
C2953      C3972   1.442       .  S
C2953      N2960   1.154       .  T
C2954      N2959   1.158       .  T
C2955      N2957   1.157       .  T
C2956      C3973   1.454       .  S
C2956      N2958   1.158       .  T
C2961      C2962   1.425       .  A
C2961      C2966   1.420       .  A
C2962      C2963   1.410       .  A
C2962      C2967   1.455       .  S
C2963      C2964   1.412       .  A
C2963      C2970   1.454       .  S
C2964      C2965   1.415       .  A
C2965      C2966   1.425       .  A
C2965      C2968   1.449       .  S
C2966      C2969   1.449       .  S
C2967      N2974   1.158       .  T
C2968      N2973   1.157       .  T
C2969      N2971   1.157       .  T
C2970      N2972   1.157       .  T
C2975      C2976   1.412       .  A
C2975      C2980   1.399       .  A
C2976      C2977   1.407       .  A
C2976      C2981   1.448       .  S
C2977      C2978   1.410       .  A
C2977      C2984   1.449       .  S
C2978      C2979   1.425       .  A
C2979      C2980   1.410       .  A
C2979      C2982   1.450       .  S
C2980      C2983   1.450       .  S
C2981      N2988   1.156       .  T
C2982      N2987   1.157       .  T
C2983      N2985   1.157       .  T
C2984      N2986   1.157       .  T
C2989      C3092   1.504       .  S
C2989      C2990   1.405       .  A
C2989      C2994   1.417       .  A
C2990      C2991   1.413       .  A
C2990      C4019   1.448       .  S
C2991      C2992   1.421       .  A
C2991      C2998   1.445       .  S
C2992      C2993   1.418       .  A
C2993      C2994   1.424       .  A
C2993      C2996   1.446       .  S
C2994      C2997   1.446       .  S
C2995      C4014   1.448       .  S
C2995      N3002   1.157       .  T
C2996      N3001   1.157       .  T
C2998      N3000   1.156       .  T
C3003      C3004   1.423       .  A
C3003      C4032   1.410   1_545  A
C3004      C3005   1.430       .  A
C3004      C3009   1.448       .  S
C3005      C3006   1.417       .  A
C3005      C3012   1.448       .  S
C3006      C4031   1.410   1_545  A
C3007      C4030   1.410       .  A
C3007      C3008   1.402       .  A
C3007      C3010   1.442       .  S
C3008      C4027   1.410       .  A
C3008      C3011   1.447       .  S
C3009      N3016   1.157       .  T
C3010      N3015   1.155       .  T
C3011      N3013   1.157       .  T
C3012      N3014   1.157       .  T
C3017      C4042   1.420       .  A
C3017      C3022   1.426       .  A
C3018      C4041   1.420       .  A
C3018      C3019   1.418       .  A
C3018      C3023   1.451       .  S
C3019      C4044   1.423       .  A
C3019      C3026   1.449       .  S
C3020      C4043   1.423       .  A
C3020      C3021   1.420       .  A
C3021      C3022   1.425       .  A
C3021      C3024   1.451       .  S
C3022      C3025   1.447       .  S
C3023      N3030   1.157       .  T
C3024      N3029   1.158       .  T
C3025      N3027   1.156       .  T
C3026      N3028   1.156       .  T
C3031      C3032   1.421       .  A
C3031      C3036   1.407       .  A
C3032      C3033   1.437       .  A
C3032      C3037   1.446       .  S
C3033      C3034   1.419       .  A
C3033      C3040   1.446       .  S
C3034      C3035   1.429       .  A
C3035      C3036   1.401       .  A
C3035      C4062   1.448       .  S
C3036      C4063   1.456   1_545  S
C3037      N3044   1.157       .  T
C3038      C4059   1.448       .  S
C3038      N3043   1.156       .  T
C3039      C4060   1.456       .  S
C3039      N3041   1.158       .  T
C3040      N3042   1.157       .  T
C3045      C3046   1.412       .  A
C3046      C3051   1.452       .  S
C3047      C3048   1.423       .  A
C3048      C3049   1.421       .  A
C3049      C3050   1.422       .  A
C3049      C3052   1.438       .  S
C3050      C3053   1.450       .  S
C3051      N3058   1.157       .  T
C3052      N3057   1.154       .  T
C3053      N3055   1.157       .  T
C3054      N3056   1.157       .  T
C3059      C3060   1.434       .  A
C3059      C3064   1.399       .  A
C3060      C3061   1.400       .  A
C3060      C3065   1.447       .  S
C3061      C3062   1.394       .  A
C3061      C3068   1.458       .  S
C3062      C3063   1.422       .  A
C3063      C3064   1.403       .  A
C3063      C3066   1.452       .  S
C3064      C3067   1.447       .  S
C3065      N3072   1.158       .  T
C3066      N3071   1.158       .  T
C3067      N3069   1.155       .  T
C3068      N3070   1.157       .  T
O3073     Al3081   1.942       .  S
C3074      O3075   1.267       .  A
C3074      C4027   1.510       .  S
O3075     Al3077   1.902       .  S
O3076     Al3077   1.989       .  S
O3076      C3078   1.276       .  A
Al3077     O3085   2.027       .  S
Al3077     O3087   1.944       .  S
C3078      C4055   1.507       .  S
O3079     Al3081   1.928       .  S
O3079      C3089   1.265       .  A
O3080     Al3090   1.941       .  S
O3080      C3093   1.265       .  A
Al3081     O3094   1.893       .  S
Al3081     O3091   1.899       .  S
Al3081     O3086   1.748       .  S
O3082     Al3090   1.826       .  S
O3082      C3089   1.242       .  A
O3083     Al3090   1.860       .  S
O3084     Al3090   1.972       .  S
O3085      C3092   1.277       .  A
O3086     Al3090   1.745       .  S
O3087      C3088   1.280       .  A
C3089      C4086   1.464       .  S
C3093      O3094   1.259       .  A
C3093      C4069   1.488       .  S
O3095     Al3103   1.881       .  S
O3095      C3110   1.261       .  A
C3096      O3106   1.263       .  A
C3096      C4041   1.529       .  S
O3097     Al3099   1.946       .  S
O3098     Al3099   1.864       .  S
O3098      C3100   1.242       .  A
Al3099     O3107   1.864       .  S
Al3099     O3109   1.989       .  S
Al3099     O3108   1.752       .  S
C3100      O3113   1.268       .  A
C3100      C4002   1.492       .  S
O3101     Al3103   1.883       .  S
O3102     Al3112   1.944       .  S
O3102      C3115   1.274       .  A
Al3103     O3116   1.938       .  S
Al3103     O3113   1.968       .  S
Al3103     O3108   1.769       .  S
O3104     Al3112   1.946       .  S
O3104      C3111   1.273       .  A
O3105     Al3112   1.975       .  S
O3105      C3114   1.275       .  A
O3106     Al3112   1.919       .  S
O3109      C3110   1.275       .  A
C3110      C3985   1.513       .  S
C3111      C3974   1.511       .  S
C3115      C4030   1.509       .  S
O3117     Al3125   1.883       .  S
O3117      C3132   1.261       .  A
C3118      O3128   1.255       .  A
C3118      O3119   1.269       .  A
C3118      C3901   1.485       .  S
O3119     Al3121   1.954       .  S
O3120     Al3121   1.857       .  S
O3120      C3122   1.243       .  A
Al3121     O3129   1.832       .  S
Al3121     O3131   1.980       .  S
Al3121     O3130   1.716       .  S
C3122      O3135   1.268       .  A
C3122      C3932   1.483       .  S
O3123     Al3125   1.842       .  S
O3123      C3133   1.260       .  A
O3124     Al3134   1.934       .  S
O3124      C3137   1.277       .  A
Al3125     O3138   1.924       .  S
Al3125     O3135   1.977       .  S
Al3125     O3130   1.738       .  S
O3126     Al3134   1.986       .  S
O3126      C3133   1.280       .  A
O3127     Al3134   2.036       .  S
O3127      C3136   1.285       .  A
O3128     Al3134   1.884       .  S
O3129      C3136   1.238       .  A
O3130     Al3134   1.770       .  S
O3131      C3132   1.275       .  A
C3132      C3943   1.491       .  S
C3133      C3915   1.480       .  S
C3136      C3873   1.505       .  S
C3137      O3138   1.268       .  A
C3137      C3887   1.509       .  S
O3139     Al3147   1.916       .  S
O3139      C3154   1.266       .  A
C3140      O3150   1.268       .  A
C3140      C3890   1.498       .  S
O3141     Al3143   1.888       .  S
O3142     Al3143   1.984       .  S
O3142      C3144   1.283       .  A
Al3143     O3151   2.048       .  S
Al3143     O3153   1.913       .  S
Al3143     O3152   1.764       .  S
C3144      O3157   1.262       .  A
C3144      C3831   1.502       .  S
O3145     Al3147   1.971       .  S
O3145      C3155   1.269       .  A
O3146     Al3156   1.979       .  S
O3146      C3159   1.275       .  A
Al3147     O3160   1.906       .  S
Al3147     O3157   1.867       .  S
Al3147     O3152   1.777       .  S
O3148     Al3156   1.861       .  S
O3148      C3155   1.241       .  A
O3149     Al3156   1.862       .  S
O3149      C3158   1.248       .  A
O3151      C3158   1.287       .  A
O3152     Al3156   1.725       .  S
O3153      C3154   1.272       .  A
C3154      C3904   1.490       .  S
C3155      C3859   1.485       .  S
C3158      C4058   1.524       .  S
C3159      O3160   1.266       .  A
C3159      C3845   1.503       .  S
O3161     Al3169   1.944       .  S
O3161      C3176   1.273       .  A
C3162      O3172   1.278       .  A
C3162      O3163   1.266       .  A
C3162      C3761   1.517       .  S
O3163     Al3165   1.915       .  S
O3164     Al3165   1.948       .  S
O3164      C3166   1.271       .  A
Al3165     O3173   1.976       .  S
Al3165     O3175   1.927       .  S
Al3165     O3174   1.779       .  S
C3166      O3179   1.262       .  A
C3166      C3789   1.493       .  S
O3167     Al3169   1.936       .  S
O3167      C3177   1.264       .  A
O3168     Al3178   1.967       .  S
O3168      C3181   1.272       .  A
Al3169     O3182   1.904       .  S
Al3169     O3179   1.904       .  S
Al3169     O3174   1.771       .  S
O3170     Al3178   1.839       .  S
O3170      C3177   1.240       .  A
O3171     Al3178   1.869       .  S
O3171      C3180   1.249       .  A
O3172     Al3178   1.974       .  S
O3173      C3180   1.271       .  A
O3174     Al3178   1.744       .  S
O3175      C3176   1.273       .  A
C3176      C3775   1.490       .  S
C3177      C3820   1.481       .  S
C3180      C3747   1.489       .  S
C3181      O3182   1.266       .  A
C3181      C3803   1.506       .  S
O3183     Al3191   1.878       .  S
O3183      C3198   1.264       .  A
C3184      O3194   1.258       .  A
C3184      O3185   1.273       .  A
C3184      C3778   1.502       .  S
O3185     Al3187   1.957       .  S
O3186     Al3187   1.843       .  S
O3186      C3188   1.241       .  A
Al3187     O3195   1.850       .  S
Al3187     O3197   1.993       .  S
Al3187     O3196   1.757       .  S
C3188      O3201   1.261       .  A
C3188      C3736   1.485       .  S
O3189     Al3191   1.891       .  S
O3189      C3199   1.266       .  A
O3190     Al3200   1.939       .  S
O3190      C3203   1.270       .  A
Al3191     O3204   1.925       .  S
Al3191     O3201   1.955       .  S
Al3191     O3196   1.766       .  S
O3192     Al3200   1.937       .  S
O3192      C3199   1.270       .  A
O3193     Al3200   1.949       .  S
O3193      C3202   1.271       .  A
O3194     Al3200   1.901       .  S
O3195      C3202   1.249       .  A
O3196     Al3200   1.782       .  S
O3197      C3198   1.278       .  A
C3198      C3719   1.522       .  S
C3199      C3876   1.470       .  S
C3202      C3705   1.482       .  S
C3203      O3204   1.267       .  A
O3205     Al3213   1.893       .  S
O3205      C3220   1.260       .  A
C3206      O3216   1.267       .  A
C3206      O3207   1.273       .  A
C3206      C3649   1.488       .  S
O3207     Al3209   1.946       .  S
O3208     Al3209   1.938   1_554  S
O3208      C3210   1.259       .  A
Al3209     O3217   1.952       .  S
Al3209     O3219   1.943       .  S
Al3209     O3218   1.811       .  S
C3210      O3223   1.258       .  A
C3210      C3666   1.497       .  S
O3211     Al3213   1.926       .  S
O3211      C3221   1.256       .  A
O3212     Al3222   1.945       .  S
O3212      C3225   1.279       .  A
Al3213     O3226   1.906       .  S
Al3213     O3223   1.870       .  S
Al3213     O3218   1.786   1_554  S
O3214     Al3222   1.803       .  S
O3214      C3221   1.238   1_556  A
O3215     Al3222   1.836       .  S
O3215      C3224   1.240       .  A
O3216     Al3222   1.893       .  S
O3217      C3224   1.260       .  A
O3218     Al3222   1.784       .  S
O3219      C3220   1.267   1_556  A
C3220      C3638   1.499       .  S
C3221      C3677   1.460       .  S
C3224      C3792   1.481       .  S
C3225      O3226   1.267   1_556  A
C3225      C3694   1.513       .  S
O3227     Al3235   1.906   1_554  S
O3227      C3242   1.266       .  A
C3228      O3229   1.285       .  A
C3228      C3635   1.507       .  S
O3230     Al3231   1.830       .  S
O3230      C3232   1.244       .  A
Al3231     O3239   1.855       .  S
Al3231     O3241   1.973       .  S
Al3231     O3240   1.739       .  S
C3232      O3245   1.260   1_554  A
C3232      C3621   1.459       .  S
O3233     Al3235   1.869       .  S
O3233      C3243   1.263       .  A
O3234     Al3244   1.933       .  S
O3234      C3247   1.278   1_554  A
Al3235     O3248   1.922       .  S
Al3235     O3245   1.921       .  S
Al3235     O3240   1.749   1_556  S
O3236     Al3244   1.975   1_556  S
O3236      C3243   1.274       .  A
O3237     Al3244   2.009       .  S
O3237      C3246   1.274       .  A
O3238     Al3244   1.882       .  S
O3239      C3246   1.241       .  A
O3240     Al3244   1.793       .  S
O3241      C3242   1.274       .  A
C3242      C3610   1.506       .  S
C3243      C3593   1.496       .  S
C3246      C3971   1.498       .  S
C3247      O3248   1.268       .  A
C3247      C3652   1.488       .  S
O3249     Al3257   1.936       .  S
O3249      C3264   1.268       .  A
C3250      O3260   1.272       .  A
C3250      O3251   1.256       .  A
C3250      C3579   1.516       .  S
O3251     Al3253   1.881       .  S
O3252     Al3253   1.955       .  S
O3252      C3254   1.274       .  A
Al3253     O3261   1.986       .  S
Al3253     O3263   1.895       .  S
Al3253     O3262   1.771       .  S
C3254      O3267   1.260       .  A
C3254      C3750   1.497       .  S
O3255     Al3257   1.959       .  S
O3255      C3265   1.266       .  A
O3256     Al3266   1.984       .  S
O3256      C3269   1.278       .  A
Al3257     O3270   1.896       .  S
Al3257     O3267   1.873       .  S
Al3257     O3262   1.776       .  S
O3258     Al3266   1.848       .  S
O3258      C3265   1.244       .  A
O3259     Al3266   1.889       .  S
O3259      C3268   1.257       .  A
O3260     Al3266   1.943       .  S
O3261      C3268   1.277       .  A
O3262     Al3266   1.745       .  S
O3263      C3264   1.268       .  A
C3264      C3565   1.474       .  S
C3265      C3929   1.477       .  S
C3268      C3554   1.498       .  S
C3269      O3270   1.265       .  A
C3269      C3848   1.510       .  S
O3271     Al3279   1.880       .  S
O3271      C3286   1.263       .  A
C3272      C3568   1.486       .  S
O3273     Al3275   1.937       .  S
O3274     Al3275   1.835       .  S
O3274      C3276   1.233       .  A
Al3275     O3283   1.853       .  S
Al3275     O3285   1.982       .  S
Al3275     O3284   1.730       .  S
C3276      O3289   1.265       .  A
C3276      C3862   1.495       .  S
O3277     Al3279   1.885       .  S
O3277      C3287   1.269       .  A
O3278     Al3288   1.945       .  S
O3278      C3291   1.277       .  A
Al3279     O3292   1.917       .  S
Al3279     O3289   1.990       .  S
Al3279     O3284   1.777       .  S
O3280     Al3288   1.978       .  S
O3280      C3287   1.284       .  A
O3281     Al3288   2.017       .  S
O3281      C3290   1.278       .  A
O3282     Al3288   1.881       .  S
O3283      C3290   1.245       .  A
O3284     Al3288   1.768       .  S
O3285      C3286   1.279       .  A
C3286      C3946   1.490       .  S
C3287      C3960   1.516       .  S
C3290      C3537   1.499       .  S
C3291      O3292   1.264       .  A
C3291      C3582   1.514       .  S
O3293      C3308   1.268       .  A
C3294      O3295   1.254       .  A
C3294      C3498   1.507       .  S
O3295     Al3297   1.883       .  S
O3296     Al3297   1.967       .  S
O3296      C3298   1.276       .  A
Al3297     O3305   2.001       .  S
Al3297     O3307   1.889       .  S
C3298      O3311   1.262       .  A
C3298      C3523   1.522       .  S
O3299     Al3301   1.945       .  S
O3299      C3309   1.269       .  A
O3300     Al3310   1.945       .  S
O3300      C3313   1.267       .  A
Al3301     O3314   1.928       .  S
Al3301     O3306   1.773       .  S
O3302     Al3310   1.859       .  S
O3302      C3309   1.250       .  A
O3303     Al3310   1.860       .  S
O3304     Al3310   1.929       .  S
O3305      C3312   1.282       .  A
O3306     Al3310   1.755       .  S
O3307      C3308   1.264       .  A
C3308      C3509   1.483       .  S
C3309      C3733   1.479       .  S
C3312      C3834   1.500       .  S
C3313      O3314   1.270       .  A
C3313      C3806   1.513       .  S
O3315     Al3323   1.889       .  S
O3315      C3330   1.261       .  A
C3316      O3326   1.255       .  A
C3316      C3512   1.485       .  S
O3317     Al3319   1.951       .  S
O3318     Al3319   1.840       .  S
O3318      C3320   1.236       .  A
Al3319     O3327   1.855       .  S
Al3319     O3329   1.996       .  S
C3320      O3333   1.265       .  A
C3320      C3817   1.465       .  S
O3321      C3331   1.259       .  A
O3322     Al3332   1.939       .  S
O3322      C3335   1.278       .  A
Al3323     O3333   1.939       .  S
O3324     Al3332   2.009       .  S
O3324      C3331   1.283       .  A
O3325     Al3332   2.046       .  S
O3325      C3334   1.283       .  A
O3326     Al3332   1.880       .  S
O3328     Al3332   1.780       .  S
O3329      C3330   1.278       .  A
C3330      C3722   1.501       .  S
C3331      C3540   1.505       .  S
C3334      C3596   1.505       .  S
C3335      O3336   1.265       .  A
O3337     Al3345   1.871       .  S
O3337      C3352   1.256       .  A
C3338      O3348   1.274       .  A
C3338      O3339   1.275       .  A
C3338      C3470   1.473       .  S
O3339     Al3341   1.936       .  S
O3340     Al3341   1.976       .  S
O3340      C3342   1.277       .  A
Al3341     O3349   2.049       .  S
Al3341     O3351   1.913       .  S
Al3341     O3350   1.771       .  S
C3342      O3355   1.255       .  A
C3342      C3551   1.517       .  S
O3343     Al3345   1.928       .  S
O3343      C3353   1.251       .  A
O3344     Al3354   1.967       .  S
O3344      C3357   1.286       .  A
Al3345     O3358   1.915       .  S
Al3345     O3355   1.865       .  S
Al3345     O3350   1.764       .  S
O3346     Al3354   1.809       .  S
O3346      C3353   1.237       .  A
O3347     Al3354   1.855       .  S
O3347      C3356   1.232       .  A
O3348     Al3354   1.895       .  S
O3349      C3356   1.281       .  A
O3350     Al3354   1.757       .  S
O3351      C3352   1.263       .  A
C3353      C3999   1.456       .  S
C3356      C3663   1.522       .  S
C3357      O3358   1.275       .  A
C3357      C4072   1.513       .  S
O3359     Al3367   1.911       .  S
O3359      C3374   1.265       .  A
C3360      O3370   1.251       .  A
C3360      O3361   1.271       .  A
C3360      C3484   1.494       .  S
O3361     Al3363   1.981       .  S
O3362     Al3363   1.838       .  S
O3362      C3364   1.241       .  A
Al3363     O3371   1.837       .  S
Al3363     O3373   1.960       .  S
Al3363     O3372   1.706       .  S
C3364      O3377   1.270       .  A
C3364      C4083   1.481       .  S
O3365     Al3367   1.876       .  S
O3365      C3375   1.266       .  A
O3366     Al3376   1.895       .  S
O3366      C3379   1.271       .  A
Al3367     O3380   1.923       .  S
Al3367     O3377   1.977       .  S
Al3367     O3372   1.764       .  S
O3368     Al3376   1.957       .  S
O3368      C3375   1.280       .  A
O3369     Al3376   2.047       .  S
O3369      C3378   1.279       .  A
O3370     Al3376   1.870       .  S
O3371      C3378   1.235       .  A
O3372     Al3376   1.789       .  S
O3373      C3374   1.267       .  A
C3374      C3988   1.498       .  S
C3375      C3453   1.491       .  S
C3378      C3918   1.503       .  S
C3379      O3380   1.271       .  A
C3379      C3467   1.471       .  S
O3381     Al3389   1.905   1_554  S
O3381      C3396   1.269       .  A
C3382      O3392   1.260       .  A
C3382      O3383   1.269       .  A
C3382      C3442   1.517       .  S
O3383     Al3385   1.934       .  S
O3384     Al3385   1.864       .  S
O3384      C3386   1.243   1_554  A
Al3385     O3393   1.849       .  S
Al3385     O3395   1.970       .  S
Al3385     O3394   1.751       .  S
C3386      O3399   1.265       .  A
C3386      C3680   1.497   1_556  S
O3387     Al3389   1.898       .  S
O3387      C3397   1.268       .  A
O3388     Al3398   1.916       .  S
O3388      C3401   1.269   1_554  A
Al3389     O3402   1.937       .  S
Al3389     O3399   1.963       .  S
Al3389     O3394   1.777   1_556  S
O3390     Al3398   1.937   1_556  S
O3390      C3397   1.271       .  A
O3391     Al3398   1.969       .  S
O3391      C3400   1.273       .  A
O3392     Al3398   1.907       .  S
O3393      C3400   1.250       .  A
O3394     Al3398   1.771       .  S
O3395      C3396   1.274       .  A
C3396      C3607   1.518       .  S
C3397      C3708   1.494       .  S
C3400      C3456   1.481       .  S
C3401      O3402   1.267       .  A
C3401      C3425   1.486       .  S
O3403     Al3411   1.920       .  S
O3403      C3418   1.271       .  A
C3404      C3428   1.500       .  S
O3405     Al3407   1.894       .  S
O3406     Al3407   1.973   1_554  S
O3406      C3408   1.276       .  A
Al3407     O3415   2.034       .  S
Al3407     O3417   1.945   1_556  S
Al3407     O3416   1.787       .  S
C3408      O3421   1.263       .  A
C3408      C4016   1.526       .  S
O3409     Al3411   1.942       .  S
O3409      C3419   1.268       .  A
O3410     Al3420   1.972       .  S
O3410      C3423   1.272       .  A
Al3411     O3424   1.900       .  S
Al3411     O3421   1.894       .  S
Al3411     O3416   1.759   1_554  S
O3412     Al3420   1.829       .  S
O3412      C3419   1.243   1_556  A
O3413     Al3420   1.855       .  S
O3413      C3422   1.242       .  A
O3414     Al3420   1.984       .  S
O3415      C3422   1.278       .  A
O3416     Al3420   1.750       .  S
O3417      C3418   1.281       .  A
C3418      C3439   1.523       .  S
C3419      C3624   1.465       .  S
C3422      C3526   1.510       .  S
C3423      O3424   1.261   1_556  A
C3423      C3691   1.501       .  S
C3425      C3426   1.412       .  A
C3425      C3430   1.404   1_556  A
C3426      C3427   1.419       .  A
C3426      C3431   1.445       .  S
C3427      C3428   1.412       .  A
C3427      C3434   1.443       .  S
C3428      C3429   1.413   1_556  A
C3429      C3430   1.407       .  A
C3429      C3432   1.439       .  S
C3430      C3433   1.450       .  S
C3431      N3438   1.156       .  T
C3432      N3437   1.153       .  T
C3433      N3435   1.155       .  T
C3434      N3436   1.157       .  T
C3439      C3440   1.429       .  A
C3439      C3444   1.419       .  A
C3440      C3441   1.417       .  A
C3440      C3445   1.452       .  S
C3441      C3442   1.413       .  A
C3441      C3448   1.451       .  S
C3442      C3443   1.423       .  A
C3443      C3444   1.422       .  A
C3443      C3446   1.448   1_554  S
C3444      C3447   1.451   1_554  S
C3445      N3452   1.157       .  T
C3446      N3451   1.157       .  T
C3447      N3449   1.158       .  T
C3448      N3450   1.157       .  T
C3453      C3454   1.411       .  A
C3453      C3458   1.421       .  A
C3454      C3455   1.411       .  A
C3454      C3459   1.451       .  S
C3455      C3456   1.415       .  A
C3455      C3462   1.447       .  S
C3456      C3457   1.409       .  A
C3457      C3458   1.411       .  A
C3457      C3460   1.451       .  S
C3458      C3461   1.453       .  S
C3459      N3466   1.157       .  T
C3460      N3465   1.157       .  T
C3461      N3463   1.157       .  T
C3462      N3464   1.156       .  T
C3467      C3468   1.413       .  A
C3467      C3472   1.410       .  A
C3468      C3469   1.408       .  A
C3468      C3473   1.451       .  S
C3469      C3470   1.411       .  A
C3469      C3476   1.451       .  S
C3470      C3471   1.410       .  A
C3471      C3472   1.403       .  A
C3471      C3474   1.446       .  S
C3472      C3475   1.453       .  S
C3473      N3480   1.157       .  T
C3474      N3479   1.154       .  T
C3475      N3477   1.157       .  T
C3476      N3478   1.157       .  T
C3481      C3482   1.419       .  A
C3481      C3486   1.412       .  A
C3482      C3483   1.409       .  A
C3482      C3487   1.452       .  S
C3483      C3484   1.406       .  A
C3483      C3490   1.448       .  S
C3484      C3485   1.415       .  A
C3485      C3486   1.411       .  A
C3485      C3488   1.446       .  S
C3486      C3489   1.451       .  S
C3488      N3493   1.156       .  T
C3489      N3491   1.157       .  T
C3490      N3492   1.158       .  T
C3495      C3496   1.429       .  A
C3495      C3500   1.415       .  A
C3496      C3497   1.409       .  A
C3497      C3498   1.417       .  A
C3498      C3499   1.425       .  A
C3499      C3500   1.417       .  A
C3499      C3502   1.453       .  S
C3500      C3503   1.452       .  S
C3502      N3507   1.157       .  T
C3503      N3505   1.158       .  T
C3504      N3506   1.158       .  T
C3509      C3510   1.406       .  A
C3509      C3514   1.413       .  A
C3510      C3511   1.404       .  A
C3510      C3515   1.449       .  S
C3511      C3512   1.414       .  A
C3511      C3518   1.448       .  S
C3512      C3513   1.412       .  A
C3513      C3514   1.417       .  A
C3513      C3516   1.449       .  S
C3514      C3517   1.448       .  S
C3515      N3522   1.155       .  T
C3516      N3521   1.158       .  T
C3517      N3519   1.157       .  T
C3518      N3520   1.156   1_565  T
C3523      C3524   1.428       .  A
C3523      C3528   1.420       .  A
C3524      C3525   1.419       .  A
C3525      C3526   1.402       .  A
C3525      C3532   1.437       .  S
C3526      C3527   1.411       .  A
C3527      C3528   1.422       .  A
C3527      C3530   1.440       .  S
C3528      C3531   1.448       .  S
C3529      N3536   1.158       .  T
C3530      N3535   1.154       .  T
C3531      N3533   1.157       .  T
C3537      C3538   1.411       .  A
C3537      C3542   1.419       .  A
C3538      C3539   1.397       .  A
C3539      C3540   1.413       .  A
C3540      C3541   1.418       .  A
C3541      C3542   1.432       .  A
C3541      C3544   1.444       .  S
C3542      C3545   1.446       .  S
C3543      N3550   1.156       .  T
C3544      N3549   1.156       .  T
C3545      N3547   1.157       .  T
C3546      N3548   1.158       .  T
C3551      C3552   1.430       .  A
C3551      C3556   1.419       .  A
C3552      C3553   1.405       .  A
C3552      C3557   1.451       .  S
C3553      C3554   1.400       .  A
C3553      C3560   1.451       .  S
C3554      C3555   1.417       .  A
C3555      C3556   1.429       .  A
C3555      C3558   1.445       .  S
C3556      C3559   1.448       .  S
C3557      N3564   1.157       .  T
C3558      N3563   1.157       .  T
C3559      N3561   1.157       .  T
C3560      N3562   1.157       .  T
C3565      C3566   1.411       .  A
C3565      C3570   1.403       .  A
C3566      C3567   1.418       .  A
C3566      C3571   1.448       .  S
C3567      C3568   1.415       .  A
C3567      C3574   1.449       .  S
C3568      C3569   1.412       .  A
C3569      C3570   1.400       .  A
C3569      C3572   1.440       .  S
C3570      C3573   1.453       .  S
C3571      N3578   1.157       .  T
C3572      N3577   1.154       .  T
C3573      N3575   1.155       .  T
C3574      N3576   1.157       .  T
C3579      C3580   1.417       .  A
C3579      C3584   1.430       .  A
C3580      C3581   1.411       .  A
C3580      C3585   1.453       .  S
C3581      C3582   1.426       .  A
C3581      C3588   1.451       .  S
C3582      C3583   1.414       .  A
C3583      C3584   1.420       .  A
C3583      C3586   1.452       .  S
C3584      C3587   1.451       .  S
C3585      N3592   1.157       .  T
C3586      N3591   1.158       .  T
C3587      N3589   1.157       .  T
C3588      N3590   1.157       .  T
C3593      C3594   1.420       .  A
C3593      C3598   1.402       .  A
C3595      C3596   1.421       .  A
C3595      C3602   1.446       .  S
C3597      C3598   1.391       .  A
C3597      C3600   1.438       .  S
C3598      C3601   1.458       .  S
C3599      N3606   1.157       .  T
C3600      N3605   1.156       .  T
C3601      N3603   1.157       .  T
C3602      N3604   1.157       .  T
C3607      C3608   1.420   1_554  A
C3607      C3612   1.425       .  A
C3608      C3609   1.413       .  A
C3608      C3613   1.454       .  S
C3609      C3610   1.419   1_556  A
C3609      C3616   1.451       .  S
C3610      C3611   1.413       .  A
C3611      C3612   1.426       .  A
C3611      C3614   1.449       .  S
C3612      C3615   1.450       .  S
C3613      N3620   1.158       .  T
C3614      N3619   1.157       .  T
C3615      N3617   1.157       .  T
C3616      N3618   1.157       .  T
C3621      C3626   1.420       .  A
C3622      C3623   1.400   1_545  A
C3622      C3627   1.454       .  S
C3623      C3624   1.426   1_556  A
C3623      C3630   1.452       .  S
C3625      C3626   1.395       .  A
C3625      C3628   1.447       .  S
C3626      C3629   1.454       .  S
C3627      N3634   1.157       .  T
C3628      N3633   1.155       .  T
C3629      N3631   1.158       .  T
C3630      N3632   1.158       .  T
C3635      C3636   1.412       .  A
C3635      C3640   1.416       .  A
C3636      C3637   1.410       .  A
C3636      C3641   1.445   1_554  S
C3637      C3638   1.408       .  A
C3637      C3644   1.445   1_554  S
C3638      C3639   1.414       .  A
C3639      C3640   1.425       .  A
C3639      C3642   1.447       .  S
C3640      C3643   1.443       .  S
C3641      N3648   1.156       .  T
C3642      N3647   1.157       .  T
C3643      N3645   1.156       .  T
C3644      N3646   1.154       .  T
C3649      C3650   1.411       .  A
C3649      C3654   1.414   1_556  A
C3650      C3651   1.418       .  A
C3650      C3655   1.448       .  S
C3651      C3652   1.416       .  A
C3651      C3658   1.450       .  S
C3652      C3653   1.408   1_556  A
C3653      C3654   1.409       .  A
C3653      C3656   1.447       .  S
C3654      C3657   1.451       .  S
C3655      N3662   1.157       .  T
C3656      N3661   1.155       .  T
C3657      N3659   1.156       .  T
C3658      N3660   1.157       .  T
C3663      C3664   1.441       .  A
C3663      C3668   1.420       .  A
C3664      C3665   1.397       .  A
C3664      C3669   1.453       .  S
C3665      C3666   1.395       .  A
C3665      C3672   1.461       .  S
C3666      C3667   1.418       .  A
C3667      C3668   1.436       .  A
C3667      C3670   1.445       .  S
C3668      C3671   1.446       .  S
C3669      N3676   1.158       .  T
C3670      N3675   1.157       .  T
C3671      N3673   1.157       .  T
C3672      N3674   1.157       .  T
C3677      C3678   1.405       .  A
C3677      C3682   1.410       .  A
C3678      C3679   1.410       .  A
C3678      C3683   1.451       .  S
C3679      C3680   1.423       .  A
C3679      C3686   1.453       .  S
C3680      C3681   1.416   1_554  A
C3681      C3682   1.408   1_556  A
C3681      C3684   1.450       .  S
C3682      C3685   1.450       .  S
C3683      N3690   1.157       .  T
C3684      N3689   1.157       .  T
C3685      N3687   1.157       .  T
C3686      N3688   1.158       .  T
C3691      C3692   1.413       .  A
C3691      C3696   1.413   1_556  A
C3692      C3693   1.424       .  A
C3692      C3697   1.442       .  S
C3693      C3694   1.419       .  A
C3693      C3700   1.450       .  S
C3694      C3695   1.425   1_556  A
C3695      C3696   1.411       .  A
C3695      C3698   1.455       .  S
C3696      C3699   1.452       .  S
C3697      N3704   1.154       .  T
C3698      N3703   1.158       .  T
C3699      N3701   1.157       .  T
C3700      N3702   1.157       .  T
C3705      C3706   1.401       .  A
C3705      C3710   1.409       .  A
C3706      C3707   1.409       .  A
C3706      C3711   1.439       .  S
C3707      C3708   1.418       .  A
C3707      C3714   1.451       .  S
C3708      C3709   1.418       .  A
C3709      C3710   1.411       .  A
C3709      C3712   1.448       .  S
C3710      C3713   1.450       .  S
C3711      N3718   1.153       .  T
C3712      N3717   1.157       .  T
C3713      N3715   1.157   1_655  T
C3714      N3716   1.158       .  T
C3719      C3720   1.424       .  A
C3720      C3725   1.449       .  S
C3721      C3722   1.413       .  A
C3722      C3723   1.412       .  A
C3723      C3724   1.411       .  A
C3723      C3726   1.453       .  S
C3724      C3727   1.455       .  S
C3725      N3732   1.158       .  T
C3726      N3731   1.157       .  T
C3727      N3729   1.158       .  T
C3728      N3730   1.157       .  T
C3733      C3734   1.414       .  A
C3733      C3738   1.406       .  A
C3734      C3735   1.406       .  A
C3734      C3739   1.452       .  S
C3735      C3736   1.414       .  A
C3735      C3742   1.449       .  S
C3736      C3737   1.418       .  A
C3737      C3738   1.401       .  A
C3737      C3740   1.451       .  S
C3738      C3741   1.450       .  S
C3739      N3746   1.157       .  T
C3740      N3745   1.156       .  T
C3741      N3743   1.157       .  T
C3742      N3744   1.157       .  T
C3747      C3748   1.409       .  A
C3747      C3752   1.414       .  A
C3748      C3749   1.412       .  A
C3748      C3753   1.449       .  S
C3749      C3750   1.421       .  A
C3749      C3756   1.452       .  S
C3750      C3751   1.413       .  A
C3751      C3752   1.413       .  A
C3751      C3754   1.450       .  S
C3752      C3755   1.447       .  S
C3753      N3760   1.157       .  T
C3754      N3759   1.157       .  T
C3755      N3757   1.157       .  T
C3756      N3758   1.157       .  T
C3761      C3762   1.416       .  A
C3761      C3766   1.423       .  A
C3762      C3763   1.404       .  A
C3762      C3767   1.438       .  S
C3763      C3764   1.399       .  A
C3763      C3770   1.447       .  S
C3764      C3765   1.412       .  A
C3765      C3766   1.429       .  A
C3765      C3768   1.448       .  S
C3766      C3769   1.442       .  S
C3767      N3774   1.155       .  T
C3768      N3773   1.157       .  T
C3769      N3771   1.155       .  T
C3770      N3772   1.156       .  T
C3775      C3776   1.405       .  A
C3775      C3780   1.406       .  A
C3776      C3777   1.411       .  A
C3776      C3781   1.447       .  S
C3777      C3778   1.419       .  A
C3777      C3784   1.448       .  S
C3778      C3779   1.416       .  A
C3779      C3780   1.420       .  A
C3779      C3782   1.441       .  S
C3780      C3783   1.446       .  S
C3781      N3788   1.155       .  T
C3782      N3787   1.155       .  T
C3783      N3785   1.157       .  T
C3784      N3786   1.157       .  T
C3789      C3790   1.406       .  A
C3789      C3794   1.416       .  A
C3790      C3791   1.408       .  A
C3790      C3795   1.445       .  S
C3791      C3792   1.413       .  A
C3791      C3798   1.447       .  S
C3792      C3793   1.409       .  A
C3793      C3794   1.418       .  A
C3793      C3796   1.449       .  S
C3794      C3797   1.445       .  S
C3795      N3802   1.154       .  T
C3796      N3801   1.157       .  T
C3797      N3799   1.155       .  T
C3798      N3800   1.155       .  T
C3803      C3804   1.419       .  A
C3803      C3808   1.413       .  A
C3804      C3805   1.415       .  A
C3804      C3809   1.450       .  S
C3805      C3806   1.416       .  A
C3805      C3812   1.452       .  S
C3806      C3807   1.424       .  A
C3807      C3808   1.423       .  A
C3807      C3810   1.450       .  S
C3808      C3811   1.450       .  S
C3809      N3816   1.157       .  T
C3810      N3815   1.157       .  T
C3811      N3813   1.157       .  T
C3812      N3814   1.158       .  T
C3817      C3818   1.392       .  A
C3817      C3822   1.418       .  A
C3818      C3819   1.399       .  A
C3818      C3823   1.457       .  S
C3819      C3820   1.437       .  A
C3819      C3826   1.450       .  S
C3820      C3821   1.407       .  A
C3821      C3822   1.399       .  A
C3821      C3824   1.454       .  S
C3822      C3825   1.451       .  S
C3823      N3830   1.157       .  T
C3824      N3829   1.157       .  T
C3825      N3827   1.157       .  T
C3826      N3828   1.158       .  T
C3831      C3832   1.423       .  A
C3831      C3836   1.410       .  A
C3832      C3833   1.415       .  A
C3832      C3837   1.453       .  S
C3833      C3840   1.451       .  S
C3835      C3836   1.417       .  A
C3836      C3839   1.450       .  S
C3837      N3844   1.157       .  T
C3838      N3843   1.157       .  T
C3839      N3841   1.157       .  T
C3840      N3842   1.157       .  T
C3845      C3850   1.416       .  A
C3846      C3847   1.413       .  A
C3846      C3851   1.451       .  S
C3847      C3848   1.421       .  A
C3847      C3854   1.452       .  S
C3848      C3849   1.418       .  A
C3849      C3852   1.449       .  S
C3850      C3853   1.449       .  S
C3851      N3858   1.157       .  T
C3852      N3857   1.158       .  T
C3853      N3855   1.157       .  T
C3854      N3856   1.157       .  T
C3860      C3861   1.402       .  A
C3860      C3865   1.449       .  S
C3861      C3868   1.452       .  S
C3862      C3863   1.407       .  A
C3863      C3866   1.446       .  S
C3864      C3867   1.453       .  S
C3865      N3872   1.157       .  T
C3866      N3871   1.157       .  T
C3867      N3869   1.157       .  T
C3868      N3870   1.157       .  T
C3873      C3874   1.440       .  A
C3873      C3878   1.415       .  A
C3874      C3875   1.393       .  A
C3874      C3879   1.455       .  S
C3875      C3876   1.391       .  A
C3875      C3882   1.459       .  S
C3876      C3877   1.413       .  A
C3877      C3878   1.422       .  A
C3877      C3880   1.446       .  S
C3878      C3881   1.448       .  S
C3879      N3886   1.159       .  T
C3880      N3885   1.157       .  T
C3881      N3883   1.157       .  T
C3882      N3884   1.157       .  T
C3887      C3888   1.422       .  A
C3887      C3892   1.414       .  A
C3888      C3889   1.409       .  A
C3888      C3893   1.446       .  S
C3889      C3890   1.407       .  A
C3889      C3896   1.451       .  S
C3890      C3891   1.420       .  A
C3891      C3892   1.417       .  A
C3891      C3894   1.445       .  S
C3892      C3895   1.450       .  S
C3893      N3900   1.156       .  T
C3894      N3899   1.156       .  T
C3895      N3897   1.158       .  T
C3896      N3898   1.157       .  T
C3901      C3902   1.408       .  A
C3901      C3906   1.417       .  A
C3902      C3903   1.415       .  A
C3902      C3907   1.450       .  S
C3903      C3904   1.420       .  A
C3903      C3910   1.451       .  S
C3904      C3905   1.411       .  A
C3905      C3906   1.410       .  A
C3905      C3908   1.454       .  S
C3906      C3909   1.449       .  S
C3907      N3914   1.157       .  T
C3908      N3913   1.158       .  T
C3909      N3911   1.156       .  T
C3910      N3912   1.157       .  T
C3915      C3916   1.414       .  A
C3915      C3920   1.404       .  A
C3916      C3917   1.428       .  A
C3916      C3921   1.447       .  S
C3917      C3918   1.418       .  A
C3917      C3924   1.447       .  S
C3918      C3919   1.432       .  A
C3919      C3920   1.391       .  A
C3919      C3922   1.449       .  S
C3920      C3923   1.466       .  S
C3921      N3928   1.157       .  T
C3922      N3927   1.160       .  T
C3923      N3925   1.158       .  T
C3924      N3926   1.157       .  T
C3929      C3930   1.403       .  A
C3929      C3934   1.415       .  A
C3930      C3935   1.447       .  S
C3931      C3932   1.420       .  A
C3931      C3938   1.452       .  S
C3933      C3934   1.402       .  A
C3933      C3936   1.447       .  S
C3934      C3937   1.452       .  S
C3935      N3942   1.157       .  T
C3936      N3941   1.156       .  T
C3937      N3939   1.157       .  T
C3938      N3940   1.157       .  T
C3943      C3948   1.414       .  A
C3944      C3945   1.419       .  A
C3945      C3946   1.412       .  A
C3945      C3952   1.450       .  S
C3946      C3947   1.416       .  A
C3947      C3950   1.451       .  S
C3948      C3951   1.454       .  S
C3949      N3956   1.157       .  T
C3950      N3955   1.157       .  T
C3951      N3953   1.157       .  T
C3952      N3954   1.157       .  T
C3957      C3958   1.405       .  A
C3957      C3962   1.410   1_545  A
C3958      C3959   1.412       .  A
C3958      C3963   1.453       .  S
C3959      C3960   1.430   1_545  A
C3959      C3966   1.449       .  S
C3960      C3961   1.424       .  A
C3961      C3962   1.418       .  A
C3961      C3964   1.450       .  S
C3962      C3965   1.451       .  S
C3964      N3969   1.157       .  T
C3965      N3967   1.157       .  T
C3966      N3968   1.158       .  T
C3971      C3972   1.409       .  A
C3971      C3976   1.414       .  A
C3972      C3973   1.415       .  A
C3973      C3974   1.425       .  A
C3974      C3975   1.419       .  A
C3975      C3976   1.415       .  A
C3975      C3978   1.451       .  S
C3976      C3979   1.448       .  S
C3977      N3984   1.154       .  T
C3978      N3983   1.158       .  T
C3979      N3981   1.157       .  T
C3980      N3982   1.158       .  T
C3985      C3986   1.425       .  A
C3985      C3990   1.420       .  A
C3986      C3987   1.410       .  A
C3986      C3991   1.455       .  S
C3987      C3988   1.412       .  A
C3987      C3994   1.454       .  S
C3988      C3989   1.415       .  A
C3989      C3990   1.425       .  A
C3989      C3992   1.449       .  S
C3990      C3993   1.449       .  S
C3991      N3998   1.158       .  T
C3992      N3997   1.157       .  T
C3993      N3995   1.157       .  T
C3994      N3996   1.157       .  T
C3999      C4000   1.412       .  A
C3999      C4004   1.399       .  A
C4000      C4001   1.407       .  A
C4000      C4005   1.448       .  S
C4001      C4002   1.410       .  A
C4001      C4008   1.449       .  S
C4002      C4003   1.425       .  A
C4003      C4004   1.410       .  A
C4003      C4006   1.450       .  S
C4004      C4007   1.450       .  S
C4005      N4012   1.156       .  T
C4006      N4011   1.157       .  T
C4007      N4009   1.157       .  T
C4008      N4010   1.157       .  T
C4013      C4014   1.405       .  A
C4013      C4018   1.417   1_545  A
C4014      C4015   1.413   1_545  A
C4015      C4016   1.421       .  A
C4015      C4022   1.445       .  S
C4016      C4017   1.418       .  A
C4017      C4018   1.424       .  A
C4017      C4020   1.446       .  S
C4018      C4021   1.446       .  S
C4019      N4026   1.157       .  T
C4020      N4025   1.157       .  T
C4022      N4024   1.156       .  T
C4027      C4028   1.423       .  A
C4028      C4029   1.430       .  A
C4028      C4033   1.448       .  S
C4029      C4030   1.417       .  A
C4029      C4036   1.448       .  S
C4031      C4032   1.402       .  A
C4031      C4034   1.442       .  S
C4032      C4035   1.447       .  S
C4033      N4040   1.157       .  T
C4034      N4039   1.155       .  T
C4035      N4037   1.157       .  T
C4036      N4038   1.157       .  T
C4041      C4046   1.426       .  A
C4042      C4043   1.418       .  A
C4042      C4047   1.451   1_545  S
C4043      C4050   1.449       .  S
C4044      C4045   1.420       .  A
C4045      C4046   1.425       .  A
C4045      C4048   1.451       .  S
C4046      C4049   1.447       .  S
C4047      N4054   1.157       .  T
C4048      N4053   1.158       .  T
C4049      N4051   1.156       .  T
C4050      N4052   1.156   1_545  T
C4055      C4056   1.421       .  A
C4055      C4060   1.407       .  A
C4056      C4057   1.437       .  A
C4056      C4061   1.446       .  S
C4057      C4058   1.419       .  A
C4057      C4064   1.446       .  S
C4058      C4059   1.429       .  A
C4059      C4060   1.401       .  A
C4061      N4068   1.157       .  T
C4062      N4067   1.156       .  T
C4063      N4065   1.158       .  T
C4064      N4066   1.157       .  T
C4069      C4070   1.412       .  A
C4070      C4075   1.452       .  S
C4071      C4072   1.423       .  A
C4072      C4073   1.421       .  A
C4073      C4074   1.422       .  A
C4073      C4076   1.438       .  S
C4074      C4077   1.450       .  S
C4075      N4082   1.157       .  T
C4076      N4081   1.154       .  T
C4077      N4079   1.157       .  T
C4078      N4080   1.157       .  T
C4083      C4084   1.434       .  A
C4083      C4088   1.399       .  A
C4084      C4085   1.400       .  A
C4084      C4089   1.447       .  S
C4085      C4086   1.394       .  A
C4085      C4092   1.458       .  S
C4086      C4087   1.422       .  A
C4087      C4088   1.403       .  A
C4087      C4090   1.452       .  S
C4088      C4091   1.447       .  S
C4089      N4096   1.158       .  T
C4090      N4095   1.158       .  T
C4091      N4093   1.155       .  T
C4092      N4094   1.157       .  T
