geometry optimzed in LAMMPS
_audit_creation_date              2020-12-01 
_audit_creation_method            'lammps2cif' 
_symmetry_space_group_name_H-M    'P1' 
_symmetry_Int_Tables_number       1 
_symmetry_cell_setting            triclinic 
loop_ 
_symmetry_equiv_pos_as_xyz 
  x,y,z 
_cell_length_a                    33.37678678 
_cell_length_b                    33.425955227051844 
_cell_length_c                    33.021139902474985 
_cell_angle_alpha                 90.27769639293814 
_cell_angle_beta                  90.55377858241114 
_cell_angle_gamma                 120.18525128388578 
loop_ 
_atom_site_label 
_atom_site_type_symbol 
_atom_site_fract_x 
_atom_site_fract_y 
_atom_site_fract_z 
_atom_site_charge 
Zn1        Zn  0.32149950  0.35451903  0.35678802     1.49700
Zn2        Zn  0.29371154  0.39024416  0.43481461     1.49400
Zn3        Zn  0.39332797  0.43702857  0.40115222     1.49100
Zn4        Zn  0.32402300  0.45332785  0.35521289     1.49500
O5          O  0.32996851  0.40836524  0.38712626    -1.83100
O6          O  0.26173802  0.29886731  0.37534878    -0.73800
O7          O  0.33592200  0.38796198  0.48022868    -0.73600
O8          O  0.41871865  0.41950411  0.35680276    -0.73100
O9          O  0.24330799  0.32355693  0.43098119    -0.73800
O10         O  0.37750359  0.34522888  0.36784788    -0.73400
O11         O  0.40422737  0.40887290  0.45235874    -0.74000
O12         O  0.38065313  0.01727161  0.35446114    -0.73400
O13         O  0.25401631  0.42289774  0.43410548    -0.74100
O14         O  0.42653738  0.50566045  0.39616990    -0.73500
O15         O  0.26947556  0.45485864  0.37261499    -0.74000
O16         O  0.31339007  0.43345650  0.29810956    -0.73900
O17         O  0.31876788  0.36939481  0.29705135    -0.73700
C18         C  0.23485002  0.29195066  0.40514784     0.78100
C19         C  0.37563554  0.39011227  0.48104667     0.78600
C20         C  0.41679469  0.38175977  0.36446801     0.77600
C21         C  0.41946310  0.03133273  0.37212624     0.78000
C22         C  0.24469925  0.44143646  0.40396168     0.79100
C23         C  0.31502944  0.40130884  0.27915033     0.78100
Zn24       Zn  0.34557081  0.33550528  0.59854910     1.49700
Zn25       Zn  0.44377491  0.34140183  0.57430285     1.49400
Zn26       Zn  0.43160108  0.38124288  0.65968665     1.49100
Zn27       Zn  0.38120169  0.28262054  0.65065773     1.49500
O28         O  0.40122554  0.33545298  0.61917179    -1.83100
O29         O  0.35601997  0.35601762  0.54374490    -0.73800
O30         O  0.01004989  0.39088131  0.59060220    -0.73600
O31         O  0.41343204  0.42691141  0.64869112    -0.73100
O32         O  0.42272393  0.36557082  0.52133560    -0.73800
O33         O  0.34414214  0.39268914  0.61770999    -0.73400
O34         O  0.99709363  0.41168092  0.65082489    -0.74000
O35         O  0.38977927  0.28785855  0.71215089    -0.73400
O36         O  0.44938124  0.28082336  0.57421269    -0.74100
O37         O  0.42795821  0.36388161  0.71792769    -0.73500
O38         O  0.41793624  0.25688967  0.63483182    -0.74000
O39         O  0.31836769  0.23778868  0.63130848    -0.73900
O40         O  0.28708273  0.27030133  0.59386013    -0.73700
C41         C  0.38636015  0.36961944  0.51679268     0.78100
C42         C  0.02442219  0.41450920  0.62337948     0.78600
C43         C  0.38024764  0.42873517  0.63141508     0.77600
C44         C  0.41200221  0.32436485  0.73363923     0.78000
C45         C  0.44018055  0.25444689  0.60516939     0.79100
C46         C  0.28546081  0.23451529  0.60902904     0.78100
Zn47       Zn  0.10355919  0.40318513  0.43048784     1.49700
Zn48       Zn  0.13731739  0.46470608  0.35051395     1.49400
Zn49       Zn  0.03797423  0.36916629  0.35024996     1.49100
Zn50       Zn  0.05690807  0.45498142  0.39843752     1.49500
O51         O  0.08477104  0.42059832  0.38208316    -1.83100
O52         O  0.16990682  0.41974821  0.42718408    -0.73800
O53         O  0.12069112  0.44428704  0.29011793    -0.73600
O54         O  0.03833190  0.31345366  0.36778026    -0.73100
O55         O  0.19373807  0.46134400  0.37090033    -0.73800
O56         O  0.07054533  0.33089305  0.42997279    -0.73400
O57         O  0.05316608  0.37783555  0.29150386    -0.74000
O58         O  0.98832592  0.41805869  0.39708000    -0.73400
O59         O  0.14618138  0.03009963  0.36174301    -0.74100
O60         O  0.47400081  0.36098261  0.35368839    -0.73500
O61         O  0.07089410  0.99695122  0.35430083    -0.74000
O62         O  0.08767366  0.49555911  0.44885909    -0.73900
O63         O  0.10758965  0.44755748  0.47684071    -0.73700
C64         C  0.20114792  0.44235109  0.40151264     0.78100
C65         C  0.08653298  0.40955067  0.27199590     0.78600
C66         C  0.05193476  0.30259625  0.39974798     0.77600
C67         C  0.46096590  0.38491156  0.37357960     0.78000
C68         C  0.10940010  0.03273646  0.36142091     0.79100
C69         C  0.10646437  0.48557409  0.47772804     0.78100
Zn70       Zn  0.11952762  0.05212822  0.65443952     1.49700
Zn71       Zn  0.15759770  0.10390803  0.57135170     1.49400
Zn72       Zn  0.21794552  0.09903995  0.64869830     1.49100
Zn73       Zn  0.16348370  0.01076558  0.59563812     1.49500
O74         O  0.16493295  0.06727424  0.61555453    -1.83100
O75         O  0.09016644  0.08848392  0.64795301    -0.73800
O76         O  0.21865037  0.17059673  0.57314420    -0.73600
O77         O  0.21318937  0.10240645  0.71037911    -0.73100
O78         O  0.10790563  0.12065947  0.58741854    -0.73800
O79         O  0.13703095  0.06250916  0.71194858    -0.73400
O80         O  0.24448582  0.16148627  0.63291100    -0.74000
O81         O  0.22813004  0.01676555  0.59172616    -0.73400
O82         O  0.13260990  0.05774460  0.51820617    -0.74100
O83         O  0.26165565  0.08018804  0.63026757    -0.73500
O84         O  0.14154286  0.00012337  0.54079552    -0.74000
O85         O  0.10700263  0.45243472  0.61564051    -0.73900
O86         O  0.07338461  0.48918005  0.64292741    -0.73700
C87         C  0.08604226  0.11246616  0.62066849     0.78100
C88         C  0.24611648  0.18700488  0.60420244     0.78600
C89         C  0.17569543  0.08618652  0.72991119     0.77600
C90         C  0.26427268  0.05053472  0.60780475     0.78000
C91         C  0.12791355  0.01702899  0.51367764     0.79100
C92         C  0.07123325  0.45320258  0.62793373     0.78100
Zn93       Zn  0.03837288  0.09969865  0.39938952     1.49700
Zn94       Zn  0.12488821  0.16808981  0.35440599     1.49400
Zn95       Zn  0.02883163  0.17062066  0.34974447     1.49100
Zn96       Zn  0.08895620  0.19993338  0.43161623     1.49500
O97         O  0.07249514  0.16251554  0.38367790    -1.83100
O98         O  0.07464817  0.06739186  0.39659208    -0.73800
O99         O  0.11909779  0.17779015  0.29614146    -0.73600
O100        O  0.46284165  0.11383810  0.35950558    -0.73100
O101        O  0.13209877  0.11185752  0.35522046    -0.73800
O102        O  0.49617496  0.07212015  0.35428819    -0.73400
O103        O  0.05098782  0.17489808  0.29049885    -0.74000
O104        O  0.07266476  0.24967403  0.42569258    -0.73400
O105        O  0.18007509  0.22307307  0.37463234    -0.74100
O106        O  0.03204614  0.23089182  0.36793167    -0.73500
O107        O  0.16113316  0.23969432  0.43475387    -0.74000
O108        O  0.04399952  0.15949370  0.47630691    -0.71500
O109        O  0.99826746  0.08928940  0.44977482    -0.73700
C110        C  0.10735687  0.07376993  0.37300773     0.78100
C111        C  0.08751116  0.17803474  0.27470864     0.78600
C112        C  0.46030381  0.07451413  0.36031351     0.77600
C113        C  0.05077636  0.25798702  0.39854052     0.78000
C114        C  0.19021236  0.24845283  0.40606376     0.79100
C115        C  0.00729844  0.11915117  0.47771893     0.78100
Zn116      Zn  0.48695539  0.15383792  0.59474081     1.49700
Zn117      Zn  0.39386458  0.05261784  0.57310136     1.49400
Zn118      Zn  0.45033927  0.07150147  0.65684009     1.49100
Zn119      Zn  0.40044778  0.12003506  0.64847696     1.49500
O120        O  0.43213656  0.09875729  0.61646765    -1.83100
O121        O  0.49336481  0.14169427  0.53940796    -0.73800
O122        O  0.37808928  0.48738212  0.59167079    -0.73600
O123        O  0.01369707  0.08940464  0.64491835    -0.73100
O124        O  0.43761549  0.07178969  0.51956243    -0.73800
O125        O  0.04705845  0.15599704  0.61143616    -0.73400
O126        O  0.41515179  0.50510597  0.65094559    -0.74000
O127        O  0.39634290  0.11164807  0.70964318    -0.73400
O128        O  0.32702949  0.04609168  0.57323703    -0.74100
O129        O  0.43931354  0.07900107  0.71452991    -0.73500
O130        O  0.33806705  0.08385731  0.63166787    -0.74000
O131        O  0.41886587  0.18259954  0.63078594    -0.73900
O132        O  0.48103352  0.21261621  0.59197661    -0.73700
C133        C  0.47673027  0.10933231  0.51356317     0.78100
C134        C  0.38903129  0.47552712  0.62482162     0.78600
C135        C  0.04792726  0.12129642  0.62643972     0.77600
C136        C  0.41350239  0.09212996  0.73067329     0.78000
C137        C  0.31159133  0.05859063  0.60346644     0.79100
C138        C  0.44794553  0.21499768  0.60855037     0.78100
Zn139      Zn  0.11456482  0.20403561  0.07329837     1.49700
Zn140      Zn  0.05917212  0.10555669  0.09358371     1.49400
Zn141      Zn  0.14464924  0.17264198  0.15545782     1.49100
Zn142      Zn  0.04502460  0.16905603  0.15059408     1.49500
O143        O  0.09258925  0.16461822  0.11962179    -1.83100
O144        O  0.12168282  0.16637679  0.02585026    -0.73800
O145        O  0.09126817  0.08044184  0.11515140    -0.73600
O146        O  0.20273272  0.23325078  0.13757923    -0.73100
O147        O  0.07338585  0.09243319  0.03749563    -0.73800
O148        O  0.18106335  0.25354315  0.08085637    -0.73400
O149        O  0.15414043  0.11500579  0.15284218    -0.74000
O150        O  0.06027350  0.17796481  0.20896416    -0.73400
O151        O  0.49705338  0.06517626  0.11486471    -0.74100
O152        O  0.12681349  0.17797851  0.21446775    -0.73500
O153        O  0.48204836  0.11202969  0.15111564    -0.74000
O154        O  0.04175107  0.22299391  0.13306545    -0.73900
O155        O  0.08011244  0.24194242  0.07437548    -0.73700
C156        C  0.10655656  0.12346773  0.01755235     0.78100
C157        C  0.12318337  0.07928533  0.13391029     0.78600
C158        C  0.21141286  0.26096497  0.10783223     0.77600
C159        C  0.09239671  0.17897032  0.23039988     0.78000
C160        C  0.47101161  0.07202692  0.13810570     0.79100
C161        C  0.05764347  0.24895083  0.10255653     0.78100
Zn162      Zn  0.16348126  0.14862697  0.90803514     1.49700
Zn163      Zn  0.14901257  0.04703884  0.92705389     1.49400
Zn164      Zn  0.11261278  0.06709721  0.84558644     1.49100
Zn165      Zn  0.21398512  0.10981885  0.85722036     1.49500
O166        O  0.15910120  0.09261541  0.88522860    -1.83100
O167        O  0.16061048  0.14549626  0.96611161    -0.73800
O168        O  0.10017659  0.48030555  0.90575639    -0.73600
O169        O  0.06842766  0.08749037  0.85865902    -0.73100
O170        O  0.12025447  0.06978688  0.97555020    -0.73800
O171        O  0.10313690  0.14999237  0.89870518    -0.73400
O172        O  0.07886788  0.49971149  0.84879335    -0.74000
O173        O  0.21150346  0.11268318  0.79549934    -0.73400
O174        O  0.21343113  0.04678576  0.92980508    -0.74100
O175        O  0.13504843  0.07741857  0.78943317    -0.73500
O176        O  0.22292632  0.05742587  0.86359956    -0.74000
O177        O  0.26531252  0.16740856  0.88507064    -0.73900
O178        O  0.22786242  0.20437348  0.90265519    -0.73700
C179        C  0.12955660  0.11136375  0.98477689     0.78100
C180        C  0.07602465  0.46915375  0.87293637     0.78600
C181        C  0.06707893  0.11817984  0.88060023     0.77600
C182        C  0.17471009  0.09326509  0.77377392     0.78000
C183        C  0.23470976  0.04799976  0.89691742     0.79100
C184        C  0.26528205  0.20296775  0.89938727     0.78100
Zn185      Zn  0.09720316  0.38683460  0.07055485     1.49700
Zn186      Zn  0.05384594  0.44253298  0.08691923     1.49400
Zn187      Zn  0.03063947  0.35839015  0.14729347     1.49100
Zn188      Zn  0.12874459  0.45524131  0.15041062     1.49500
O189        O  0.07742607  0.40940644  0.11552983    -1.83100
O190        O  0.05197631  0.37442059  0.02184269    -0.73800
O191        O  0.48976279  0.41774322  0.10055771    -0.73600
O192        O  0.03214418  0.29886134  0.13024942    -0.73100
O193        O  0.04427577  0.43579195  0.02690729    -0.73800
O194        O  0.08202381  0.32326932  0.07947248    -0.73400
O195        O  0.46664544  0.35393542  0.13667022    -0.74000
O196        O  0.11791645  0.43881522  0.20825077    -0.73400
O197        O  0.08763282  0.50629939  0.10587246    -0.74100
O198        O  0.04910260  0.37413595  0.20853451    -0.73500
O199        O  0.14368011  0.02185302  0.15033945    -0.74000
O200        O  0.18312234  0.45300229  0.13515432    -0.73900
O201        O  0.16934338  0.41952946  0.07353483    -0.73700
C202        C  0.03297128  0.39736240  0.01008260     0.78100
C203        C  0.45828747  0.38246291  0.11778215     0.78600
C204        C  0.05560987  0.29184916  0.10333818     0.77600
C205        C  0.08446403  0.40683062  0.22726427     0.78000
C206        C  0.11965639  0.03422975  0.12994143     0.79100
C207        C  0.19560710  0.43886918  0.10484672     0.78100
Zn208      Zn  0.41130260  0.29572936  0.93559969     1.49700
Zn209      Zn  0.47206281  0.32478433  0.85549107     1.49400
Zn210      Zn  0.37505731  0.32551821  0.85602404     1.49100
Zn211      Zn  0.45956866  0.39379311  0.89946476     1.49500
O212        O  0.42647071  0.33080440  0.88687561    -1.83100
O213        O  0.42612059  0.24548360  0.93044778    -0.73800
O214        O  0.45255259  0.32423817  0.79435799    -0.73600
O215        O  0.32162166  0.26975004  0.87189984    -0.73100
O216        O  0.46476208  0.26146750  0.87251407    -0.73800
O217        O  0.33766710  0.25483868  0.93434906    -0.73400
O218        O  0.38377215  0.32015804  0.79823630    -0.74000
O219        O  0.42227543  0.42436526  0.89951839    -0.73400
O220        O  0.03677743  0.38426915  0.87080525    -0.74100
O221        O  0.36188931  0.37754699  0.86062920    -0.73500
O222        O  0.00006296  0.42018984  0.85337016    -0.74000
O223        O  0.49982129  0.40594532  0.94923729    -0.73900
O224        O  0.46137673  0.33760238  0.97966907    -0.73700
C225        C  0.44534920  0.23493010  0.90287907     0.78100
C226        C  0.41629999  0.32175198  0.77767216     0.78600
C227        C  0.31010803  0.24545175  0.90341031     0.77600
C228        C  0.38629891  0.41572279  0.87905417     0.78000
C229        C  0.03721752  0.42217818  0.86439811     0.79100
C230        C  0.49633046  0.37908272  0.97786559     0.78100
Zn231      Zn  0.34229573  0.48440179  0.11363447     1.49700
Zn232      Zn  0.37993837  0.43040959  0.16435608     1.49400
Zn233      Zn  0.28097941  0.38886958  0.15225645     1.49100
Zn234      Zn  0.33862770  0.39467313  0.07718415     1.49500
O235        O  0.33631771  0.42528484  0.12548413    -1.83100
O236        O  0.39037461  0.03197670  0.15073474    -0.73800
O237        O  0.35814701  0.41871153  0.22058751    -0.73600
O238        O  0.23458046  0.40113323  0.12508673    -0.73100
O239        O  0.42993043  0.99456937  0.15533609    -0.73800
O240        O  0.27757989  0.47602640  0.10969216    -0.73400
O241        O  0.28372740  0.39640789  0.21323482    -0.74000
O242        O  0.27495609  0.32971195  0.07717263    -0.73400
O243        O  0.40150818  0.38624907  0.15401352    -0.74100
O244        O  0.26528090  0.32494456  0.14382419    -0.73500
O245        O  0.39504356  0.38518002  0.08685715    -0.74000
O246        O  0.35332390  0.44311737  0.02843828    -0.73900
O247        O  0.37064701  0.50900646  0.05996843    -0.73700
C248        C  0.42836479  0.03154599  0.15022857     0.78100
C249        C  0.31858089  0.40499886  0.23543334     0.78600
C250        C  0.23851311  0.43847523  0.11129957     0.77600
C251        C  0.25400527  0.30662932  0.10903038     0.78000
C252        C  0.41384047  0.38077665  0.11939650     0.79100
C253        C  0.36847541  0.48725042  0.02782918     0.78100
Zn254      Zn  0.43735632  0.10111272  0.93300351     1.49700
Zn255      Zn  0.37474207  0.09975941  0.85547799     1.49400
Zn256      Zn  0.42807095  0.05295674  0.84957048     1.49100
Zn257      Zn  0.34138856  0.00735825  0.90457153     1.49500
O258        O  0.39526462  0.06628590  0.88746867    -1.83100
O259        O  0.44175636  0.16664396  0.93225875    -0.73800
O260        O  0.38295614  0.10006932  0.79387015    -0.73600
O261        O  0.99397626  0.09297330  0.85542907    -0.73100
O262        O  0.41388182  0.16485484  0.86997564    -0.73800
O263        O  0.00493184  0.11575076  0.91970829    -0.73400
O264        O  0.41897828  0.05994884  0.79173120    -0.74000
O265        O  0.34001053  0.45214388  0.87654496    -0.73400
O266        O  0.30998119  0.07902640  0.87362382    -0.74100
O267        O  0.41545171  0.49172353  0.86317831    -0.73500
O268        O  0.28240412  0.01320071  0.90794049    -0.74000
O269        O  0.35122227  0.99194627  0.95981076    -0.73900
O270        O  0.41140267  0.05605210  0.98538859    -0.73700
C271        C  0.43524297  0.18681885  0.90173999     0.78100
C272        C  0.40410516  0.08360717  0.77417042     0.78600
C273        C  0.02053821  0.11163390  0.88557559     0.77600
C274        C  0.37912086  0.45443270  0.87216612     0.78000
C275        C  0.27806169  0.04657124  0.89427769     0.79100
C276        C  0.37873607  0.01325706  0.98893701     0.78100
Zn277      Zn  0.32150241  0.85452117  0.35678866     1.49700
Zn278      Zn  0.29371206  0.89024509  0.43481398     1.49400
Zn279      Zn  0.39332926  0.93703086  0.40115342     1.49100
Zn280      Zn  0.32402475  0.95332958  0.35521295     1.49500
O281        O  0.32997001  0.90836689  0.38712659    -1.83100
O282        O  0.26174030  0.79886820  0.37534795    -0.73800
O283        O  0.33592162  0.88796158  0.48022812    -0.73600
O284        O  0.41872155  0.91950716  0.35680454    -0.73100
O285        O  0.24330813  0.82355768  0.43097908    -0.73800
O286        O  0.37750673  0.84523187  0.36784945    -0.73400
O287        O  0.40422811  0.90887473  0.45235967    -0.74000
O288        O  0.38065204  0.51727043  0.35446058    -0.73400
O289        O  0.25401832  0.92290010  0.43410549    -0.74100
O290        O  0.42653799  0.00566272  0.39617211    -0.73500
O291        O  0.26947752  0.95486069  0.37261486    -0.74000
O292        O  0.31339319  0.93345831  0.29810957    -0.73900
O293        O  0.31877271  0.86939748  0.29705222    -0.73700
C294        C  0.23485140  0.79195156  0.40514648     0.78100
C295        C  0.37563518  0.89011262  0.48104658     0.78600
C296        C  0.41679766  0.88176344  0.36446941     0.77600
C297        C  0.41946220  0.53133073  0.37212489     0.78000
C298        C  0.24470122  0.94143889  0.40396221     0.79100
C299        C  0.31503388  0.90131115  0.27915060     0.78100
Zn300      Zn  0.34556856  0.83550346  0.59854795     1.49700
Zn301      Zn  0.44377460  0.84140239  0.57430284     1.49400
Zn302      Zn  0.43159867  0.88124148  0.65968607     1.49100
Zn303      Zn  0.38119906  0.78261891  0.65065662     1.49500
O304        O  0.40122359  0.83545160  0.61917105    -1.83100
O305        O  0.35601836  0.85601602  0.54374378    -0.73800
O306        O  0.01004940  0.89088288  0.59060349    -0.73600
O307        O  0.41342920  0.92690940  0.64869013    -0.73100
O308        O  0.42272383  0.86557152  0.52133594    -0.73800
O309        O  0.34413982  0.89268785  0.61770854    -0.73400
O310        O  0.99709217  0.91168117  0.65082622    -0.74000
O311        O  0.38977853  0.78785683  0.71214962    -0.73400
O312        O  0.44938270  0.78082491  0.57421193    -0.74100
O313        O  0.42795464  0.86387988  0.71792683    -0.73500
O314        O  0.41793307  0.75688816  0.63482902    -0.74000
O315        O  0.31836467  0.73778716  0.63130786    -0.73900
O316        O  0.28708017  0.77029952  0.59385853    -0.73700
C317        C  0.38635935  0.86961926  0.51679243     0.78100
C318        C  0.02442085  0.91451031  0.62338109     0.78600
C319        C  0.38024556  0.92873307  0.63141397     0.77600
C320        C  0.41200047  0.82436319  0.73363828     0.78000
C321        C  0.44017950  0.75444649  0.60516873     0.79100
C322        C  0.28545770  0.73451334  0.60902813     0.78100
Zn323      Zn  0.10356184  0.90318808  0.43048884     1.49700
Zn324      Zn  0.13732002  0.96470884  0.35051477     1.49400
Zn325      Zn  0.03797672  0.86916846  0.35025139     1.49100
Zn326      Zn  0.05691188  0.95498545  0.39843664     1.49500
O327        O  0.08477380  0.92060089  0.38208399    -1.83100
O328        O  0.16991024  0.91975266  0.42718517    -0.73800
O329        O  0.12069309  0.94428977  0.29011932    -0.73600
O330        O  0.03833480  0.81345568  0.36778081    -0.73100
O331        O  0.19374063  0.96134661  0.37090047    -0.73800
O332        O  0.07054953  0.83089551  0.42997295    -0.73400
O333        O  0.05316791  0.87783822  0.29150554    -0.74000
O334        O  0.98832994  0.91806336  0.39707941    -0.73400
O335        O  0.14617828  0.53009659  0.36174270    -0.74100
O336        O  0.47400343  0.86098464  0.35369052    -0.73500
O337        O  0.07089055  0.49694909  0.35430344    -0.74000
O338        O  0.08767739  0.99556386  0.44885801    -0.73900
O339        O  0.10759075  0.94756097  0.47684114    -0.73700
C340        C  0.20115027  0.94235413  0.40151349     0.78100
C341        C  0.08653522  0.90955392  0.27199685     0.78600
C342        C  0.05193812  0.80259740  0.39974834     0.77600
C343        C  0.46096908  0.88491534  0.37358093     0.78000
C344        C  0.10939699  0.53273399  0.36142223     0.79100
C345        C  0.10646646  0.98557793  0.47772759     0.78100
Zn346      Zn  0.11952672  0.55212605  0.65443799     1.49700
Zn347      Zn  0.15759589  0.60390492  0.57135092     1.49400
Zn348      Zn  0.21794387  0.59903849  0.64869755     1.49100
Zn349      Zn  0.16348419  0.51076383  0.59563760     1.49500
O350        O  0.16493221  0.56727216  0.61555343    -1.83100
O351        O  0.09016632  0.58848317  0.64795346    -0.73800
O352        O  0.21864838  0.67059395  0.57314306    -0.73600
O353        O  0.21318610  0.60240261  0.71037825    -0.73100
O354        O  0.10790319  0.62065599  0.58741803    -0.73800
O355        O  0.13702774  0.56250200  0.71194767    -0.73400
O356        O  0.24448272  0.66148512  0.63291108    -0.74000
O357        O  0.22813078  0.51676520  0.59172656    -0.73400
O358        O  0.13260763  0.55774041  0.51820611    -0.74100
O359        O  0.26165526  0.58018842  0.63026716    -0.73500
O360        O  0.14154311  0.50012042  0.54079488    -0.74000
O361        O  0.10700133  0.95243630  0.61564025    -0.73900
O362        O  0.07338448  0.98918065  0.64293134    -0.73700
C363        C  0.08604176  0.61246426  0.62066817     0.78100
C364        C  0.24611337  0.68700286  0.60420183     0.78600
C365        C  0.17569192  0.58618022  0.72991033     0.77600
C366        C  0.26427318  0.55053510  0.60780468     0.78000
C367        C  0.12791231  0.51702541  0.51367767     0.79100
C368        C  0.07123224  0.95320367  0.62793583     0.78100
Zn369      Zn  0.03837186  0.59969823  0.39938921     1.49700
Zn370      Zn  0.12488865  0.66808859  0.35440596     1.49400
Zn371      Zn  0.02883196  0.67062047  0.34974445     1.49100
Zn372      Zn  0.08895762  0.69993320  0.43161596     1.49500
O373        O  0.07249547  0.66251505  0.38367766    -1.83100
O374        O  0.07464697  0.56739104  0.39659320    -0.73800
O375        O  0.11909764  0.67778756  0.29614141    -0.73600
O376        O  0.46284145  0.61383727  0.35950510    -0.73100
O377        O  0.13209799  0.61185540  0.35522157    -0.73800
O378        O  0.49617447  0.57211898  0.35428751    -0.73400
O379        O  0.05098867  0.67489803  0.29049916    -0.74000
O380        O  0.07266745  0.74967533  0.42569246    -0.73400
O381        O  0.18007625  0.72307280  0.37463089    -0.74100
O382        O  0.03204797  0.73089312  0.36793233    -0.73500
O383        O  0.16113459  0.73969384  0.43475268    -0.74000
O384        O  0.04400057  0.65949403  0.47630674    -0.71500
O385        O  0.99826645  0.58929020  0.44977393    -0.73700
C386        C  0.10735504  0.57376819  0.37300914     0.78100
C387        C  0.08751226  0.67803349  0.27470817     0.78600
C388        C  0.46030304  0.57451253  0.36031244     0.77600
C389        C  0.05077919  0.75798766  0.39854070     0.78000
C390        C  0.19021389  0.74845314  0.40606256     0.79100
C391        C  0.00729762  0.61915125  0.47771900     0.78100
Zn392      Zn  0.48695585  0.65383845  0.59474115     1.49700
Zn393      Zn  0.39386532  0.55261891  0.57310202     1.49400
Zn394      Zn  0.45033942  0.57150268  0.65684121     1.49100
Zn395      Zn  0.40044809  0.62003618  0.64847752     1.49500
O396        O  0.43213703  0.59875833  0.61646827    -1.83100
O397        O  0.49336552  0.64169514  0.53940801    -0.73800
O398        O  0.37808719  0.98738084  0.59166990    -0.73600
O399        O  0.01369663  0.58940427  0.64491924    -0.73100
O400        O  0.43761567  0.57179101  0.51956233    -0.73800
O401        O  0.04705841  0.65599636  0.61143626    -0.73400
O402        O  0.41515203  0.00510480  0.65094371    -0.74000
O403        O  0.39634271  0.61164905  0.70964391    -0.73400
O404        O  0.32703022  0.54609221  0.57323781    -0.74100
O405        O  0.43931413  0.57900309  0.71453124    -0.73500
O406        O  0.33806756  0.58385853  0.63166815    -0.74000
O407        O  0.41886650  0.68260057  0.63078580    -0.73900
O408        O  0.48103384  0.71261703  0.59197641    -0.73700
C409        C  0.47673024  0.60933292  0.51356300     0.78100
C410        C  0.38902997  0.97552532  0.62482045     0.78600
C411        C  0.04792753  0.62129561  0.62643982     0.77600
C412        C  0.41350302  0.59213127  0.73067390     0.78000
C413        C  0.31159208  0.55859171  0.60346677     0.79100
C414        C  0.44794519  0.71499755  0.60855043     0.78100
Zn415      Zn  0.11456422  0.70403514  0.07329744     1.49700
Zn416      Zn  0.05916971  0.60555614  0.09358433     1.49400
Zn417      Zn  0.14464773  0.67263976  0.15545658     1.49100
Zn418      Zn  0.04502630  0.66905948  0.15059444     1.49500
O419        O  0.09258845  0.66461794  0.11962137    -1.83100
O420        O  0.12168073  0.66637532  0.02584943    -0.73800
O421        O  0.09126226  0.58043603  0.11515084    -0.73600
O422        O  0.20273145  0.73324827  0.13757836    -0.73100
O423        O  0.07338284  0.59243206  0.03749559    -0.73800
O424        O  0.18106306  0.75354070  0.08085493    -0.73400
O425        O  0.15413744  0.61500291  0.15283844    -0.74000
O426        O  0.06027509  0.67796679  0.20896437    -0.73400
O427        O  0.49704966  0.56518002  0.11486551    -0.74100
O428        O  0.12681244  0.67797551  0.21446747    -0.73500
O429        O  0.48204765  0.61203592  0.15111624    -0.74000
O430        O  0.04175627  0.72299924  0.13306667    -0.73900
O431        O  0.08011517  0.74194555  0.07437554    -0.73700
C432        C  0.10655420  0.62346592  0.01755182     0.78100
C433        C  0.12317981  0.57928196  0.13390857     0.78600
C434        C  0.21141210  0.76096217  0.10783139     0.77600
C435        C  0.09239775  0.67896938  0.23039936     0.78000
C436        C  0.47100873  0.57203253  0.13810672     0.79100
C437        C  0.05764807  0.74895565  0.10255728     0.78100
Zn438      Zn  0.16348164  0.64862442  0.90803540     1.49700
Zn439      Zn  0.14901192  0.54703661  0.92705446     1.49400
Zn440      Zn  0.11261053  0.56709477  0.84558700     1.49100
Zn441      Zn  0.21398302  0.60981265  0.85721928     1.49500
O442        O  0.15909999  0.59261246  0.88522828    -1.83100
O443        O  0.16060886  0.64549354  0.96611200    -0.73800
O444        O  0.10017557  0.98030823  0.90575630    -0.73600
O445        O  0.06842630  0.58748971  0.85865989    -0.73100
O446        O  0.12025200  0.56978440  0.97555034    -0.73800
O447        O  0.10313881  0.64999273  0.89870466    -0.73400
O448        O  0.07886999  0.99971379  0.84879130    -0.74000
O449        O  0.21150018  0.61267526  0.79549849    -0.73400
O450        O  0.21343174  0.54678568  0.92980639    -0.74100
O451        O  0.13504517  0.57741370  0.78943272    -0.73500
O452        O  0.22292093  0.55741735  0.86359993    -0.74000
O453        O  0.26531273  0.66740382  0.88506761    -0.73900
O454        O  0.22786404  0.70436900  0.90265607    -0.73700
C455        C  0.12955443  0.61136125  0.98477665     0.78100
C456        C  0.07602485  0.96915593  0.87293576     0.78600
C457        C  0.06707969  0.61818098  0.88060059     0.77600
C458        C  0.17470653  0.59325835  0.77377311     0.78000
C459        C  0.23470806  0.54799643  0.89691792     0.79100
C460        C  0.26528256  0.70296239  0.89938558     0.78100
Zn461      Zn  0.09720572  0.88683962  0.07055568     1.49700
Zn462      Zn  0.05384495  0.94253537  0.08692314     1.49400
Zn463      Zn  0.03064198  0.85839293  0.14729510     1.49100
Zn464      Zn  0.12874657  0.95524432  0.15041226     1.49500
O465        O  0.07742766  0.90940974  0.11553137    -1.83100
O466        O  0.05197832  0.87442560  0.02184311    -0.73800
O467        O  0.48976218  0.91774486  0.10056361    -0.73600
O468        O  0.03214967  0.79886605  0.13025109    -0.73100
O469        O  0.04427029  0.93579245  0.02691140    -0.73800
O470        O  0.08202730  0.82327385  0.07947270    -0.73400
O471        O  0.46664616  0.85393388  0.13667102    -0.74000
O472        O  0.11791790  0.93881811  0.20825255    -0.73400
O473        O  0.08763348  0.00630258  0.10587617    -0.74100
O474        O  0.04910431  0.87413896  0.20853599    -0.73500
O475        O  0.14367745  0.52185002  0.15033803    -0.74000
O476        O  0.18312495  0.95300548  0.13515655    -0.73900
O477        O  0.16934667  0.91953533  0.07353603    -0.73700
C478        C  0.03296936  0.89736464  0.01008446     0.78100
C479        C  0.45828737  0.88246192  0.11778506     0.78600
C480        C  0.05561469  0.79185418  0.10333908     0.77600
C481        C  0.08446601  0.90683398  0.22726528     0.78000
C482        C  0.11965467  0.53422715  0.12993926     0.79100
C483        C  0.19560994  0.93887357  0.10484853     0.78100
Zn484      Zn  0.41130297  0.79572994  0.93559953     1.49700
Zn485      Zn  0.47206277  0.82478576  0.85548994     1.49400
Zn486      Zn  0.37505590  0.82551509  0.85602304     1.49100
Zn487      Zn  0.45956580  0.89379303  0.89946600     1.49500
O488        O  0.42647065  0.83080467  0.88687504    -1.83100
O489        O  0.42612313  0.74548593  0.93044798    -0.73800
O490        O  0.45255218  0.82423811  0.79435660    -0.73600
O491        O  0.32162252  0.76974456  0.87189756    -0.73100
O492        O  0.46476326  0.76146933  0.87251356    -0.73800
O493        O  0.33766749  0.75483593  0.93434804    -0.73400
O494        O  0.38377118  0.82015629  0.79823526    -0.74000
O495        O  0.42226791  0.92436057  0.89951950    -0.73400
O496        O  0.03677655  0.88427181  0.87080326    -0.74100
O497        O  0.36188377  0.87754122  0.86062878    -0.73500
O498        O  0.00006136  0.92019357  0.85337260    -0.74000
O499        O  0.49981870  0.90594674  0.94923913    -0.73900
O500        O  0.46137618  0.83760340  0.97967005    -0.73700
C501        C  0.44535136  0.73493293  0.90287887     0.78100
C502        C  0.41629909  0.82175080  0.77767112     0.78600
C503        C  0.31010858  0.74544656  0.90340839     0.77600
C504        C  0.38629114  0.91571611  0.87905442     0.78000
C505        C  0.03721663  0.92218084  0.86439835     0.79100
C506        C  0.49632840  0.87908375  0.97786716     0.78100
Zn507      Zn  0.34229820  0.98439950  0.11363478     1.49700
Zn508      Zn  0.37993798  0.93040389  0.16435455     1.49400
Zn509      Zn  0.28097904  0.88886903  0.15225736     1.49100
Zn510      Zn  0.33862761  0.89467032  0.07718378     1.49500
O511        O  0.33631687  0.92528134  0.12548382    -1.83100
O512        O  0.39037147  0.53198285  0.15073297    -0.73800
O513        O  0.35815007  0.91871196  0.22058704    -0.73600
O514        O  0.23458135  0.90113613  0.12509018    -0.73100
O515        O  0.42992799  0.49457684  0.15534066    -0.73800
O516        O  0.27758326  0.97602794  0.10969220    -0.73400
O517        O  0.28373021  0.89640801  0.21323567    -0.74000
O518        O  0.27495692  0.82970870  0.07717284    -0.73400
O519        O  0.40149898  0.88623598  0.15401344    -0.74100
O520        O  0.26527556  0.82494298  0.14382409    -0.73500
O521        O  0.39504461  0.88517943  0.08685693    -0.74000
O522        O  0.35332312  0.94311468  0.02843815    -0.73900
O523        O  0.37065095  0.00900468  0.05996904    -0.73700
C524        C  0.42836149  0.53155259  0.15023019     0.78100
C525        C  0.31858435  0.90500016  0.23543356     0.78600
C526        C  0.23851542  0.93847821  0.11130146     0.77600
C527        C  0.25400358  0.80662690  0.10903045     0.78000
C528        C  0.41383812  0.88077115  0.11939675     0.79100
C529        C  0.36847663  0.98724832  0.02782954     0.78100
Zn530      Zn  0.43735779  0.60111506  0.93300420     1.49700
Zn531      Zn  0.37474207  0.59976161  0.85547880     1.49400
Zn532      Zn  0.42807516  0.55296316  0.84957166     1.49100
Zn533      Zn  0.34139174  0.50736082  0.90457024     1.49500
O534        O  0.39526618  0.56628951  0.88746917    -1.83100
O535        O  0.44175984  0.66664709  0.93225822    -0.73800
O536        O  0.38295681  0.60007171  0.79387125    -0.73600
O537        O  0.99398058  0.59298612  0.85542664    -0.73100
O538        O  0.41388120  0.66485675  0.86997646    -0.73800
O539        O  0.00493251  0.61574913  0.91970958    -0.73400
O540        O  0.41897827  0.55995039  0.79173227    -0.74000
O541        O  0.34000340  0.95213848  0.87654798    -0.73400
O542        O  0.30998068  0.57902767  0.87362456    -0.74100
O543        O  0.41544301  0.99171583  0.86317465    -0.73500
O544        O  0.28240590  0.51320080  0.90793900    -0.74000
O545        O  0.35122413  0.49194765  0.95980957    -0.73900
O546        O  0.41140165  0.55605465  0.98538909    -0.73700
C547        C  0.43524488  0.68682170  0.90173985     0.78100
C548        C  0.40410572  0.58360863  0.77417108     0.78600
C549        C  0.02054036  0.61163857  0.88557575     0.77600
C550        C  0.37911229  0.95442530  0.87216573     0.78000
C551        C  0.27806190  0.54657123  0.89427775     0.79100
C552        C  0.37873587  0.51325904  0.98893660     0.78100
Zn553      Zn  0.82149951  0.35451936  0.35678813     1.49700
Zn554      Zn  0.79371158  0.39024442  0.43481477     1.49400
Zn555      Zn  0.89332802  0.43702894  0.40115248     1.49100
Zn556      Zn  0.82402287  0.45332814  0.35521297     1.49500
O557        O  0.82996846  0.40836542  0.38712647    -1.83100
O558        O  0.76173801  0.29886766  0.37534881    -0.73800
O559        O  0.83592178  0.38796198  0.48022889    -0.73600
O560        O  0.91871891  0.41950437  0.35680324    -0.73100
O561        O  0.74330780  0.32355715  0.43098121    -0.73800
O562        O  0.87750354  0.34522901  0.36784796    -0.73400
O563        O  0.90422727  0.40887322  0.45235914    -0.74000
O564        O  0.88065331  0.01727184  0.35446119    -0.73400
O565        O  0.75401633  0.42289813  0.43410548    -0.74100
O566        O  0.92653725  0.50566070  0.39617012    -0.73500
O567        O  0.76947575  0.45485881  0.37261490    -0.74000
O568        O  0.81338990  0.43345642  0.29810959    -0.73900
O569        O  0.81876785  0.36939479  0.29705149    -0.73700
C570        C  0.73484990  0.29195072  0.40514800     0.78100
C571        C  0.87563582  0.39011251  0.48104685     0.78600
C572        C  0.91679460  0.38175985  0.36446823     0.77600
C573        C  0.91946331  0.03133280  0.37212670     0.78000
C574        C  0.74469899  0.44143629  0.40396259     0.79100
C575        C  0.81502941  0.40130897  0.27915044     0.78100
Zn576      Zn  0.84557085  0.33550530  0.59854931     1.49700
Zn577      Zn  0.94377501  0.34140198  0.57430300     1.49400
Zn578      Zn  0.93160115  0.38124282  0.65968683     1.49100
Zn579      Zn  0.88120153  0.28262050  0.65065785     1.49500
O580        O  0.90122557  0.33545292  0.61917203    -1.83100
O581        O  0.85601986  0.35601782  0.54374511    -0.73800
O582        O  0.51005028  0.39088152  0.59060230    -0.73600
O583        O  0.91343190  0.42691144  0.64869128    -0.73100
O584        O  0.92272373  0.36557092  0.52133578    -0.73800
O585        O  0.84414200  0.39268914  0.61771028    -0.73400
O586        O  0.49709375  0.41168105  0.65082480    -0.74000
O587        O  0.88977902  0.28785830  0.71215094    -0.73400
O588        O  0.94938139  0.28082347  0.57421264    -0.74100
O589        O  0.92795830  0.36388140  0.71792777    -0.73500
O590        O  0.91793638  0.25688952  0.63483171    -0.74000
O591        O  0.81836755  0.23778861  0.63130834    -0.73900
O592        O  0.78708265  0.27030140  0.59386004    -0.73700
C593        C  0.88636049  0.36961971  0.51679283     0.78100
C594        C  0.52442195  0.41450905  0.62337910     0.78600
C595        C  0.88024791  0.42873507  0.63141537     0.77600
C596        C  0.91200214  0.32436459  0.73363934     0.78000
C597        C  0.94018032  0.25444692  0.60516991     0.79100
C598        C  0.78546042  0.23451502  0.60902892     0.78100
Zn599      Zn  0.60355907  0.40318512  0.43048798     1.49700
Zn600      Zn  0.63731752  0.46470630  0.35051411     1.49400
Zn601      Zn  0.53797438  0.36916646  0.35025001     1.49100
Zn602      Zn  0.55690812  0.45498165  0.39843743     1.49500
O603        O  0.58477096  0.42059831  0.38208312    -1.83100
O604        O  0.66990689  0.41974852  0.42718410    -0.73800
O605        O  0.62069131  0.44428727  0.29011811    -0.73600
O606        O  0.53833193  0.31345383  0.36778003    -0.73100
O607        O  0.69373795  0.46134423  0.37090031    -0.73800
O608        O  0.57054510  0.33089303  0.42997273    -0.73400
O609        O  0.55316640  0.37783576  0.29150387    -0.74000
O610        O  0.48832575  0.41805858  0.39707956    -0.73400
O611        O  0.64618128  0.03009941  0.36174329    -0.74100
O612        O  0.97400073  0.36098278  0.35368858    -0.73500
O613        O  0.57089392  0.99695115  0.35430095    -0.74000
O614        O  0.58767358  0.49555919  0.44885912    -0.73900
O615        O  0.60758926  0.44755753  0.47684083    -0.73700
C616        C  0.70114755  0.44235072  0.40151352     0.78100
C617        C  0.58653324  0.40955098  0.27199590     0.78600
C618        C  0.55193481  0.30259610  0.39974831     0.77600
C619        C  0.96096586  0.38491173  0.37357974     0.78000
C620        C  0.60939972  0.03273686  0.36142103     0.79100
C621        C  0.60646374  0.48557376  0.47772752     0.78100
Zn622      Zn  0.61952762  0.05212806  0.65443946     1.49700
Zn623      Zn  0.65759763  0.10390799  0.57135169     1.49400
Zn624      Zn  0.71794546  0.09903987  0.64869823     1.49100
Zn625      Zn  0.66348366  0.01076553  0.59563805     1.49500
O626        O  0.66493292  0.06727411  0.61555446    -1.83100
O627        O  0.59016628  0.08848394  0.64795303    -0.73800
O628        O  0.71865052  0.17059686  0.57314425    -0.73600
O629        O  0.71318927  0.10240651  0.71037895    -0.73100
O630        O  0.60790525  0.12065943  0.58741871    -0.73800
O631        O  0.63703088  0.06250876  0.71194857    -0.73400
O632        O  0.74448603  0.16148637  0.63291091    -0.74000
O633        O  0.72812971  0.01676552  0.59172604    -0.73400
O634        O  0.63260974  0.05774439  0.51820608    -0.74100
O635        O  0.76165533  0.08018804  0.63026765    -0.73500
O636        O  0.64154284  0.00012329  0.54079570    -0.74000
O637        O  0.60700243  0.45243450  0.61564048    -0.73900
O638        O  0.57338446  0.48917989  0.64292730    -0.73700
C639        C  0.58604252  0.11246585  0.62066841     0.78100
C640        C  0.74611613  0.18700464  0.60420219     0.78600
C641        C  0.67569531  0.08618648  0.72991120     0.77600
C642        C  0.76427311  0.05053465  0.60780457     0.78000
C643        C  0.62791314  0.01702925  0.51367750     0.79100
C644        C  0.57123309  0.45320225  0.62793342     0.78100
Zn645      Zn  0.53837278  0.09969875  0.39938963     1.49700
Zn646      Zn  0.62488824  0.16808980  0.35440615     1.49400
Zn647      Zn  0.52883155  0.17062060  0.34974455     1.49100
Zn648      Zn  0.58895619  0.19993349  0.43161637     1.49500
O649        O  0.57249492  0.16251553  0.38367803    -1.83100
O650        O  0.57464855  0.06739205  0.39659195    -0.73800
O651        O  0.61909760  0.17779024  0.29614147    -0.73600
O652        O  0.96284157  0.11383840  0.35950552    -0.73100
O653        O  0.63209893  0.11185765  0.35522048    -0.73800
O654        O  0.99617448  0.07212013  0.35428824    -0.73400
O655        O  0.55098753  0.17489793  0.29049903    -0.74000
O656        O  0.57266443  0.24967413  0.42569257    -0.73400
O657        O  0.68007511  0.22307339  0.37463242    -0.74100
O658        O  0.53204600  0.23089188  0.36793161    -0.73500
O659        O  0.66113304  0.23969455  0.43475389    -0.74000
O660        O  0.54399968  0.15949381  0.47630685    -0.71500
O661        O  0.49826753  0.08928943  0.44977448    -0.73700
C662        C  0.60735669  0.07377049  0.37300815     0.78100
C663        C  0.58751148  0.17803454  0.27470897     0.78600
C664        C  0.96030402  0.07451407  0.36031342     0.77600
C665        C  0.55077647  0.25798687  0.39854081     0.78000
C666        C  0.69021219  0.24845289  0.40606393     0.79100
C667        C  0.50729799  0.11915104  0.47771922     0.78100
Zn668      Zn  0.98695531  0.15383792  0.59474078     1.49700
Zn669      Zn  0.89386461  0.05261780  0.57310143     1.49400
Zn670      Zn  0.95033948  0.07150148  0.65684003     1.49100
Zn671      Zn  0.90044770  0.12003497  0.64847702     1.49500
O672        O  0.93213658  0.09875721  0.61646758    -1.83100
O673        O  0.99336475  0.14169440  0.53940782    -0.73800
O674        O  0.87808924  0.48738210  0.59167096    -0.73600
O675        O  0.51369686  0.08940438  0.64491852    -0.73100
O676        O  0.93761541  0.07178947  0.51956257    -0.73800
O677        O  0.54705825  0.15599704  0.61143631    -0.73400
O678        O  0.91515203  0.50510608  0.65094572    -0.74000
O679        O  0.89634279  0.11164796  0.70964309    -0.73400
O680        O  0.82702931  0.04609163  0.57323715    -0.74100
O681        O  0.93931355  0.07900114  0.71453001    -0.73500
O682        O  0.83806702  0.08385722  0.63166782    -0.74000
O683        O  0.91886589  0.18259954  0.63078602    -0.73900
O684        O  0.98103344  0.21261625  0.59197666    -0.73700
C685        C  0.97673063  0.10933239  0.51356274     0.78100
C686        C  0.88903150  0.47552701  0.62482200     0.78600
C687        C  0.54792769  0.12129630  0.62643964     0.77600
C688        C  0.91350278  0.09212952  0.73067310     0.78000
C689        C  0.81159188  0.05859068  0.60346624     0.79100
C690        C  0.94794513  0.21499747  0.60855078     0.78100
Zn691      Zn  0.61456465  0.20403553  0.07329850     1.49700
Zn692      Zn  0.55917205  0.10555651  0.09358387     1.49400
Zn693      Zn  0.64464910  0.17264189  0.15545788     1.49100
Zn694      Zn  0.54502450  0.16905593  0.15059422     1.49500
O695        O  0.59258907  0.16461802  0.11962205    -1.83100
O696        O  0.62168262  0.16637661  0.02585030    -0.73800
O697        O  0.59126815  0.08044189  0.11515147    -0.73600
O698        O  0.70273273  0.23325087  0.13757938    -0.73100
O699        O  0.57338575  0.09243307  0.03749585    -0.73800
O700        O  0.68106342  0.25354328  0.08085658    -0.73400
O701        O  0.65414043  0.11500577  0.15284221    -0.74000
O702        O  0.56027309  0.17796452  0.20896398    -0.73400
O703        O  0.99705338  0.06517635  0.11486454    -0.74100
O704        O  0.62681326  0.17797849  0.21446791    -0.73500
O705        O  0.98204866  0.11202991  0.15111566    -0.74000
O706        O  0.54175099  0.22299382  0.13306571    -0.73900
O707        O  0.58011222  0.24194237  0.07437568    -0.73700
C708        C  0.60655651  0.12346789  0.01755266     0.78100
C709        C  0.62318410  0.07928574  0.13391075     0.78600
C710        C  0.71141233  0.26096474  0.10783234     0.77600
C711        C  0.59239699  0.17897005  0.23040020     0.78000
C712        C  0.97101169  0.07202684  0.13810569     0.79100
C713        C  0.55764332  0.24895079  0.10255676     0.78100
Zn714      Zn  0.66348140  0.14862710  0.90803509     1.49700
Zn715      Zn  0.64901258  0.04703893  0.92705391     1.49400
Zn716      Zn  0.61261278  0.06709739  0.84558643     1.49100
Zn717      Zn  0.71398511  0.10981879  0.85722035     1.49500
O718        O  0.65910118  0.09261552  0.88522863    -1.83100
O719        O  0.66061016  0.14549639  0.96611150    -0.73800
O720        O  0.60017663  0.48030581  0.90575659    -0.73600
O721        O  0.56842793  0.08749058  0.85865896    -0.73100
O722        O  0.62025456  0.06978694  0.97555025    -0.73800
O723        O  0.60313722  0.14999279  0.89870501    -0.73400
O724        O  0.57886770  0.49971168  0.84879342    -0.74000
O725        O  0.71150339  0.11268316  0.79549927    -0.73400
O726        O  0.71343097  0.04678558  0.92980514    -0.74100
O727        O  0.63504842  0.07741850  0.78943317    -0.73500
O728        O  0.72292622  0.05742579  0.86359963    -0.74000
O729        O  0.76531276  0.16740866  0.88507068    -0.73900
O730        O  0.72786293  0.20437362  0.90265541    -0.73700
C731        C  0.62955649  0.11136406  0.98477699     0.78100
C732        C  0.57602406  0.46915343  0.87293631     0.78600
C733        C  0.56707857  0.11818020  0.88060004     0.77600
C734        C  0.67470993  0.09326496  0.77377394     0.78000
C735        C  0.73470951  0.04799940  0.89691754     0.79100
C736        C  0.76528183  0.20296729  0.89938732     0.78100
Zn737      Zn  0.59720310  0.38683454  0.07055488     1.49700
Zn738      Zn  0.55384602  0.44253304  0.08691921     1.49400
Zn739      Zn  0.53063962  0.35839030  0.14729363     1.49100
Zn740      Zn  0.62874470  0.45524145  0.15041059     1.49500
O741        O  0.57742630  0.40940654  0.11552992    -1.83100
O742        O  0.55197624  0.37442030  0.02184269    -0.73800
O743        O  0.98976267  0.41774296  0.10055777    -0.73600
O744        O  0.53214431  0.29886137  0.13024961    -0.73100
O745        O  0.54427566  0.43579159  0.02690727    -0.73800
O746        O  0.58202373  0.32326922  0.07947255    -0.73400
O747        O  0.96664541  0.35393506  0.13667021    -0.74000
O748        O  0.61791672  0.43881533  0.20825087    -0.73400
O749        O  0.58763286  0.50629939  0.10587244    -0.74100
O750        O  0.54910294  0.37413626  0.20853456    -0.73500
O751        O  0.64368018  0.02185320  0.15033939    -0.74000
O752        O  0.68312277  0.45300268  0.13515427    -0.73900
O753        O  0.66934367  0.41952943  0.07353500    -0.73700
C754        C  0.53297131  0.39736255  0.01008271     0.78100
C755        C  0.95828748  0.38246292  0.11778209     0.78600
C756        C  0.55560980  0.29184915  0.10333832     0.77600
C757        C  0.58446428  0.40683090  0.22726423     0.78000
C758        C  0.61965700  0.03423019  0.12994194     0.79100
C759        C  0.69560698  0.43886930  0.10484673     0.78100
Zn760      Zn  0.91130270  0.29572924  0.93559970     1.49700
Zn761      Zn  0.97206299  0.32478416  0.85549115     1.49400
Zn762      Zn  0.87505741  0.32551793  0.85602404     1.49100
Zn763      Zn  0.95956885  0.39379299  0.89946451     1.49500
O764        O  0.92647106  0.33080440  0.88687561    -1.83100
O765        O  0.92612066  0.24548332  0.93044779    -0.73800
O766        O  0.95255266  0.32423788  0.79435808    -0.73600
O767        O  0.82162193  0.26974968  0.87189994    -0.73100
O768        O  0.96476210  0.26146716  0.87251412    -0.73800
O769        O  0.83766733  0.25483869  0.93434935    -0.73400
O770        O  0.88377227  0.32015797  0.79823656    -0.74000
O771        O  0.92227583  0.42436545  0.89951785    -0.73400
O772        O  0.53677723  0.38426969  0.87080518    -0.74100
O773        O  0.86188916  0.37754676  0.86062948    -0.73500
O774        O  0.50006265  0.42019022  0.85337029    -0.74000
O775        O  0.99982140  0.40594531  0.94923722    -0.73900
O776        O  0.96137693  0.33760238  0.97966905    -0.73700
C777        C  0.94534913  0.23492996  0.90287910     0.78100
C778        C  0.91630002  0.32175178  0.77767226     0.78600
C779        C  0.81010794  0.24545131  0.90341046     0.77600
C780        C  0.88629870  0.41572237  0.87905393     0.78000
C781        C  0.53721681  0.42217802  0.86439809     0.79100
C782        C  0.99633030  0.37908246  0.97786558     0.78100
Zn783      Zn  0.84229595  0.48440189  0.11363456     1.49700
Zn784      Zn  0.87993850  0.43040973  0.16435618     1.49400
Zn785      Zn  0.78097947  0.38886972  0.15225645     1.49100
Zn786      Zn  0.83862759  0.39467307  0.07718414     1.49500
O787        O  0.83631784  0.42528488  0.12548427    -1.83100
O788        O  0.89037477  0.03197684  0.15073477    -0.73800
O789        O  0.85814711  0.41871167  0.22058762    -0.73600
O790        O  0.73458064  0.40113331  0.12508666    -0.73100
O791        O  0.92993062  0.99456965  0.15533611    -0.73800
O792        O  0.77758013  0.47602665  0.10969226    -0.73400
O793        O  0.78372751  0.39640817  0.21323485    -0.74000
O794        O  0.77495600  0.32971199  0.07717290    -0.73400
O795        O  0.90150823  0.38624937  0.15401362    -0.74100
O796        O  0.76528086  0.32494476  0.14382460    -0.73500
O797        O  0.89504319  0.38517986  0.08685714    -0.74000
O798        O  0.85332360  0.44311714  0.02843844    -0.73900
O799        O  0.87064692  0.50900634  0.05996842    -0.73700
C800        C  0.92836483  0.03154581  0.15022853     0.78100
C801        C  0.81858074  0.40499894  0.23543346     0.78600
C802        C  0.73851299  0.43847533  0.11129953     0.77600
C803        C  0.75400479  0.30662899  0.10903040     0.78000
C804        C  0.91384047  0.38077651  0.11939627     0.79100
C805        C  0.86847522  0.48725007  0.02782912     0.78100
Zn806      Zn  0.93735615  0.10111237  0.93300346     1.49700
Zn807      Zn  0.87474187  0.09975904  0.85547787     1.49400
Zn808      Zn  0.92807095  0.05295639  0.84957045     1.49100
Zn809      Zn  0.84138841  0.00735793  0.90457146     1.49500
O810        O  0.89526444  0.06628547  0.88746866    -1.83100
O811        O  0.94175616  0.16664358  0.93225878    -0.73800
O812        O  0.88295590  0.10006913  0.79387040    -0.73600
O813        O  0.49397672  0.09297385  0.85542900    -0.73100
O814        O  0.91388163  0.16485450  0.86997564    -0.73800
O815        O  0.50493229  0.11575111  0.91970809    -0.73400
O816        O  0.91897819  0.05994873  0.79173108    -0.74000
O817        O  0.84001050  0.45214334  0.87654493    -0.73400
O818        O  0.80998122  0.07902618  0.87362358    -0.74100
O819        O  0.91545156  0.49172326  0.86317791    -0.73500
O820        O  0.78240393  0.01320052  0.90794026    -0.74000
O821        O  0.85122205  0.99194585  0.95981076    -0.73900
O822        O  0.91140238  0.05605180  0.98538849    -0.73700
C823        C  0.93524288  0.18681868  0.90174004     0.78100
C824        C  0.90410544  0.08360668  0.77417031     0.78600
C825        C  0.52053792  0.11163424  0.88557554     0.77600
C826        C  0.87912047  0.45443209  0.87216597     0.78000
C827        C  0.77806148  0.04657089  0.89427761     0.79100
C828        C  0.87873584  0.01325670  0.98893700     0.78100
Zn829      Zn  0.82150243  0.85452143  0.35678876     1.49700
Zn830      Zn  0.79371209  0.89024531  0.43481412     1.49400
Zn831      Zn  0.89332923  0.93703115  0.40115367     1.49100
Zn832      Zn  0.82402465  0.95332974  0.35521305     1.49500
O833        O  0.82997004  0.90836710  0.38712673    -1.83100
O834        O  0.76174021  0.79886822  0.37534798    -0.73800
O835        O  0.83592159  0.88796165  0.48022831    -0.73600
O836        O  0.91872170  0.91950766  0.35680500    -0.73100
O837        O  0.74330789  0.82355756  0.43097906    -0.73800
O838        O  0.87750673  0.84523215  0.36784953    -0.73400
O839        O  0.90422821  0.90887514  0.45235998    -0.74000
O840        O  0.88065194  0.51727056  0.35446063    -0.73400
O841        O  0.75401841  0.92290014  0.43410581    -0.74100
O842        O  0.92653809  0.00566318  0.39617228    -0.73500
O843        O  0.76947765  0.95486084  0.37261514    -0.74000
O844        O  0.81339314  0.93345859  0.29810958    -0.73900
O845        O  0.81877271  0.86939786  0.29705227    -0.73700
C846        C  0.73485147  0.79195205  0.40514665     0.78100
C847        C  0.87563519  0.89011284  0.48104684     0.78600
C848        C  0.91679798  0.88176342  0.36446979     0.77600
C849        C  0.91946225  0.53133132  0.37212476     0.78000
C850        C  0.74470105  0.94143926  0.40396217     0.79100
C851        C  0.81503387  0.90131155  0.27915085     0.78100
Zn852      Zn  0.84556863  0.83550348  0.59854812     1.49700
Zn853      Zn  0.94377479  0.84140254  0.57430300     1.49400
Zn854      Zn  0.93159870  0.88124135  0.65968619     1.49100
Zn855      Zn  0.88119911  0.78261883  0.65065654     1.49500
O856        O  0.90122368  0.83545156  0.61917118    -1.83100
O857        O  0.85601838  0.85601619  0.54374411    -0.73800
O858        O  0.51004943  0.89088273  0.59060334    -0.73600
O859        O  0.91342944  0.92690940  0.64869037    -0.73100
O860        O  0.92272385  0.86557181  0.52133609    -0.73800
O861        O  0.84413994  0.89268779  0.61770894    -0.73400
O862        O  0.49709197  0.91168125  0.65082592    -0.74000
O863        O  0.88977872  0.78785657  0.71214966    -0.73400
O864        O  0.94938292  0.78082503  0.57421199    -0.74100
O865        O  0.92795457  0.86387961  0.71792697    -0.73500
O866        O  0.91793297  0.75688800  0.63482895    -0.74000
O867        O  0.81836448  0.73778704  0.63130763    -0.73900
O868        O  0.78708007  0.77029958  0.59385853    -0.73700
C869        C  0.88635931  0.86961946  0.51679261     0.78100
C870        C  0.52442087  0.91451028  0.62338074     0.78600
C871        C  0.88024566  0.92873306  0.63141413     0.77600
C872        C  0.91200046  0.82436293  0.73363804     0.78000
C873        C  0.94017995  0.75444662  0.60516828     0.79100
C874        C  0.78545797  0.73451345  0.60902810     0.78100
Zn875      Zn  0.60356173  0.90318809  0.43048897     1.49700
Zn876      Zn  0.63732017  0.96470915  0.35051496     1.49400
Zn877      Zn  0.53797687  0.86916862  0.35025152     1.49100
Zn878      Zn  0.55691178  0.95498554  0.39843667     1.49500
O879        O  0.58477360  0.92060085  0.38208407    -1.83100
O880        O  0.66991015  0.91975272  0.42718546    -0.73800
O881        O  0.62069321  0.94429004  0.29011927    -0.73600
O882        O  0.53833474  0.81345566  0.36778081    -0.73100
O883        O  0.69374066  0.96134673  0.37090090    -0.73800
O884        O  0.57054926  0.83089529  0.42997291    -0.73400
O885        O  0.55316825  0.87783851  0.29150534    -0.74000
O886        O  0.48832984  0.91806327  0.39707918    -0.73400
O887        O  0.64617808  0.53009666  0.36174283    -0.74100
O888        O  0.97400322  0.86098475  0.35369073    -0.73500
O889        O  0.57089038  0.49694908  0.35430322    -0.74000
O890        O  0.58767726  0.99556374  0.44885811    -0.73900
O891        O  0.60759055  0.94756068  0.47684123    -0.73700
C892        C  0.70115001  0.94235443  0.40151342     0.78100
C893        C  0.58653518  0.90955399  0.27199745     0.78600
C894        C  0.55193813  0.80259782  0.39974867     0.77600
C895        C  0.96096940  0.88491537  0.37358090     0.78000
C896        C  0.60939744  0.53273430  0.36142240     0.79100
C897        C  0.60646596  0.98557820  0.47772761     0.78100
Zn898      Zn  0.61952675  0.55212596  0.65443789     1.49700
Zn899      Zn  0.65759575  0.60390493  0.57135081     1.49400
Zn900      Zn  0.71794383  0.59903842  0.64869739     1.49100
Zn901      Zn  0.66348409  0.51076385  0.59563739     1.49500
O902        O  0.66493211  0.56727208  0.61555329    -1.83100
O903        O  0.59016617  0.58848318  0.64795337    -0.73800
O904        O  0.71864814  0.67059396  0.57314294    -0.73600
O905        O  0.71318593  0.60240262  0.71037825    -0.73100
O906        O  0.60790310  0.62065597  0.58741789    -0.73800
O907        O  0.63702776  0.56250174  0.71194771    -0.73400
O908        O  0.74448269  0.66148499  0.63291088    -0.74000
O909        O  0.72813074  0.51676522  0.59172634    -0.73400
O910        O  0.63260752  0.55774057  0.51820624    -0.74100
O911        O  0.76165513  0.58018843  0.63026703    -0.73500
O912        O  0.64154302  0.50012044  0.54079507    -0.74000
O913        O  0.60700117  0.95243618  0.61564018    -0.73900
O914        O  0.57338440  0.98918065  0.64293113    -0.73700
C915        C  0.58604153  0.61246401  0.62066851     0.78100
C916        C  0.74611354  0.68700294  0.60420176     0.78600
C917        C  0.67569211  0.58618018  0.72990987     0.77600
C918        C  0.76427331  0.55053481  0.60780438     0.78000
C919        C  0.62791173  0.51702511  0.51367712     0.79100
C920        C  0.57123232  0.95320361  0.62793557     0.78100
Zn921      Zn  0.53837200  0.59969833  0.39938926     1.49700
Zn922      Zn  0.62488860  0.66808873  0.35440599     1.49400
Zn923      Zn  0.52883176  0.67062037  0.34974455     1.49100
Zn924      Zn  0.58895750  0.69993321  0.43161598     1.49500
O925        O  0.57249550  0.66251516  0.38367771    -1.83100
O926        O  0.57464711  0.56739126  0.39659344    -0.73800
O927        O  0.61909756  0.67778774  0.29614135    -0.73600
O928        O  0.96284141  0.61383718  0.35950492    -0.73100
O929        O  0.63209795  0.61185551  0.35522150    -0.73800
O930        O  0.99617433  0.57211896  0.35428748    -0.73400
O931        O  0.55098857  0.67489793  0.29049915    -0.74000
O932        O  0.57266730  0.74967511  0.42569253    -0.73400
O933        O  0.68007619  0.72307286  0.37463075    -0.74100
O934        O  0.53204766  0.73089275  0.36793232    -0.73500
O935        O  0.66113467  0.73969406  0.43475263    -0.74000
O936        O  0.54400050  0.65949401  0.47630684    -0.71500
O937        O  0.49826645  0.58929026  0.44977397    -0.73700
C938        C  0.60735543  0.57376852  0.37300884     0.78100
C939        C  0.58751160  0.67803334  0.27470861     0.78600
C940        C  0.96030316  0.57451306  0.36031229     0.77600
C941        C  0.55077914  0.75798805  0.39854106     0.78000
C942        C  0.69021408  0.74845360  0.40606273     0.79100
C943        C  0.50729773  0.61915127  0.47771900     0.78100
Zn944      Zn  0.98695599  0.65383853  0.59474108     1.49700
Zn945      Zn  0.89386543  0.55261888  0.57310202     1.49400
Zn946      Zn  0.95033962  0.57150283  0.65684117     1.49100
Zn947      Zn  0.90044806  0.62003615  0.64847738     1.49500
O948        O  0.93213707  0.59875833  0.61646825    -1.83100
O949        O  0.99336546  0.64169511  0.53940795    -0.73800
O950        O  0.87808719  0.98738069  0.59166998    -0.73600
O951        O  0.51369673  0.58940414  0.64491912    -0.73100
O952        O  0.93761563  0.57179087  0.51956247    -0.73800
O953        O  0.54705849  0.65599628  0.61143639    -0.73400
O954        O  0.91515223  0.00510487  0.65094368    -0.74000
O955        O  0.89634277  0.61164916  0.70964381    -0.73400
O956        O  0.82703004  0.54609216  0.57323786    -0.74100
O957        O  0.93931434  0.57900331  0.71453109    -0.73500
O958        O  0.83806743  0.58385855  0.63166808    -0.74000
O959        O  0.91886632  0.68260049  0.63078573    -0.73900
O960        O  0.98103377  0.71261716  0.59197647    -0.73700
C961        C  0.97673014  0.60933283  0.51356304     0.78100
C962        C  0.88903011  0.97552532  0.62482054     0.78600
C963        C  0.54792707  0.62129522  0.62644011     0.77600
C964        C  0.91350276  0.59213133  0.73067392     0.78000
C965        C  0.81159219  0.55859156  0.60346644     0.79100
C966        C  0.94794571  0.71499787  0.60855007     0.78100
Zn967      Zn  0.61456389  0.70403503  0.07329755     1.49700
Zn968      Zn  0.55916943  0.60555592  0.09358432     1.49400
Zn969      Zn  0.64464741  0.67263973  0.15545657     1.49100
Zn970      Zn  0.54502593  0.66905934  0.15059454     1.49500
O971        O  0.59258818  0.66461791  0.11962144    -1.83100
O972        O  0.62168061  0.66637519  0.02584930    -0.73800
O973        O  0.59126200  0.58043599  0.11515082    -0.73600
O974        O  0.70273111  0.73324825  0.13757845    -0.73100
O975        O  0.57338282  0.59243207  0.03749538    -0.73800
O976        O  0.68106282  0.75354066  0.08085493    -0.73400
O977        O  0.65413720  0.61500296  0.15283839    -0.74000
O978        O  0.56027476  0.67796659  0.20896420    -0.73400
O979        O  0.99704996  0.56518022  0.11486549    -0.74100
O980        O  0.62681237  0.67797558  0.21446734    -0.73500
O981        O  0.98204812  0.61203620  0.15111635    -0.74000
O982        O  0.54175598  0.72299911  0.13306671    -0.73900
O983        O  0.58011494  0.74194552  0.07437562    -0.73700
C984        C  0.60655341  0.62346573  0.01755227     0.78100
C985        C  0.62317975  0.57928186  0.13390865     0.78600
C986        C  0.71141193  0.76096227  0.10783142     0.77600
C987        C  0.59239703  0.67896924  0.23039976     0.78000
C988        C  0.97100902  0.57203267  0.13810683     0.79100
C989        C  0.55764777  0.74895565  0.10255762     0.78100
Zn990      Zn  0.66348163  0.64862445  0.90803531     1.49700
Zn991      Zn  0.64901175  0.54703662  0.92705435     1.49400
Zn992      Zn  0.61261054  0.56709495  0.84558678     1.49100
Zn993      Zn  0.71398305  0.60981267  0.85721913     1.49500
O994        O  0.65910001  0.59261260  0.88522830    -1.83100
O995        O  0.66060880  0.64549375  0.96611183    -0.73800
O996        O  0.60017542  0.98030835  0.90575653    -0.73600
O997        O  0.56842656  0.58749006  0.85865966    -0.73100
O998        O  0.62025199  0.56978438  0.97555019    -0.73800
O999        O  0.60313931  0.64999317  0.89870448    -0.73400
O1000       O  0.57886969  0.99971367  0.84879153    -0.74000
O1001       O  0.71150020  0.61267534  0.79549846    -0.73400
O1002       O  0.71343163  0.54678558  0.92980615    -0.74100
O1003       O  0.63504511  0.57741363  0.78943275    -0.73500
O1004       O  0.72292079  0.55741727  0.86359967    -0.74000
O1005       O  0.76531274  0.66740362  0.88506746    -0.73900
O1006       O  0.72786418  0.70436891  0.90265627    -0.73700
C1007       C  0.62955361  0.61136112  0.98477710     0.78100
C1008       C  0.57602455  0.96915614  0.87293556     0.78600
C1009       C  0.56707976  0.61818145  0.88060045     0.77600
C1010       C  0.67470670  0.59325830  0.77377269     0.78000
C1011       C  0.73470772  0.54799619  0.89691780     0.79100
C1012       C  0.76528296  0.70296255  0.89938584     0.78100
Zn1013     Zn  0.59720562  0.88683947  0.07055567     1.49700
Zn1014     Zn  0.55384515  0.94253560  0.08692328     1.49400
Zn1015     Zn  0.53064212  0.85839317  0.14729524     1.49100
Zn1016     Zn  0.62874679  0.95524441  0.15041238     1.49500
O1017       O  0.57742784  0.90940999  0.11553146    -1.83100
O1018       O  0.55197810  0.87442563  0.02184326    -0.73800
O1019       O  0.98976201  0.91774466  0.10056333    -0.73600
O1020       O  0.53214981  0.79886607  0.13025123    -0.73100
O1021       O  0.54427025  0.93579260  0.02691168    -0.73800
O1022       O  0.58202719  0.82327398  0.07947274    -0.73400
O1023       O  0.96664615  0.85393379  0.13667092    -0.74000
O1024       O  0.61791843  0.93881843  0.20825240    -0.73400
O1025       O  0.58763345  0.00630227  0.10587598    -0.74100
O1026       O  0.54910455  0.87413930  0.20853607    -0.73500
O1027       O  0.64367746  0.52185017  0.15033800    -0.74000
O1028       O  0.68312508  0.95300563  0.13515653    -0.73900
O1029       O  0.66934670  0.91953520  0.07353610    -0.73700
C1030       C  0.53296935  0.89736464  0.01008470     0.78100
C1031       C  0.95828720  0.88246194  0.11778482     0.78600
C1032       C  0.55561449  0.79185420  0.10333938     0.77600
C1033       C  0.58446611  0.90683409  0.22726590     0.78000
C1034       C  0.61965480  0.53422715  0.12993936     0.79100
C1035       C  0.69560992  0.93887358  0.10484841     0.78100
Zn1036     Zn  0.91130318  0.79572985  0.93559945     1.49700
Zn1037     Zn  0.97206309  0.82478553  0.85548994     1.49400
Zn1038     Zn  0.87505621  0.82551486  0.85602305     1.49100
Zn1039     Zn  0.95956610  0.89379290  0.89946570     1.49500
O1040       O  0.92647090  0.83080460  0.88687491    -1.83100
O1041       O  0.92612318  0.74548577  0.93044804    -0.73800
O1042       O  0.95255217  0.82423768  0.79435671    -0.73600
O1043       O  0.82162263  0.76974415  0.87189774    -0.73100
O1044       O  0.96476325  0.76146909  0.87251360    -0.73800
O1045       O  0.83766754  0.75483581  0.93434826    -0.73400
O1046       O  0.88377110  0.82015610  0.79823550    -0.74000
O1047       O  0.92226809  0.92436045  0.89951889    -0.73400
O1048       O  0.53677650  0.88427224  0.87080338    -0.74100
O1049       O  0.86188355  0.87754067  0.86062874    -0.73500
O1050       O  0.50006140  0.92019400  0.85337304    -0.74000
O1051       O  0.99981913  0.90594678  0.94923902    -0.73900
O1052       O  0.96137660  0.83760351  0.97966997    -0.73700
C1053       C  0.94535146  0.73493241  0.90287883     0.78100
C1054       C  0.91629895  0.82175046  0.77767086     0.78600
C1055       C  0.81010910  0.74544659  0.90340855     0.77600
C1056       C  0.88629141  0.91571595  0.87905441     0.78000
C1057       C  0.53721599  0.92218110  0.86439839     0.79100
C1058       C  0.99632862  0.87908389  0.97786692     0.78100
Zn1059     Zn  0.84229833  0.98439950  0.11363487     1.49700
Zn1060     Zn  0.87993798  0.93040393  0.16435458     1.49400
Zn1061     Zn  0.78097895  0.88886898  0.15225746     1.49100
Zn1062     Zn  0.83862752  0.89467026  0.07718384     1.49500
O1063       O  0.83631692  0.92528131  0.12548383    -1.83100
O1064       O  0.89037174  0.53198307  0.15073293    -0.73800
O1065       O  0.85815038  0.91871221  0.22058701    -0.73600
O1066       O  0.73458161  0.90113629  0.12509008    -0.73100
O1067       O  0.92992820  0.49457702  0.15534082    -0.73800
O1068       O  0.77758355  0.97602821  0.10969223    -0.73400
O1069       O  0.78373047  0.89640817  0.21323562    -0.74000
O1070       O  0.77495664  0.82970862  0.07717289    -0.73400
O1071       O  0.90149896  0.88623595  0.15401372    -0.74100
O1072       O  0.76527544  0.82494292  0.14382413    -0.73500
O1073       O  0.89504443  0.88517915  0.08685722    -0.74000
O1074       O  0.85332294  0.94311460  0.02843823    -0.73900
O1075       O  0.87065095  0.00900464  0.05996900    -0.73700
C1076       C  0.92836168  0.53155273  0.15023022     0.78100
C1077       C  0.81858455  0.90500034  0.23543381     0.78600
C1078       C  0.73851545  0.93847836  0.11130134     0.77600
C1079       C  0.75400352  0.80662697  0.10903047     0.78000
C1080       C  0.91383792  0.88077112  0.11939675     0.79100
C1081       C  0.86847646  0.98724802  0.02782952     0.78100
Zn1082     Zn  0.93735744  0.60111460  0.93300411     1.49700
Zn1083     Zn  0.87474184  0.59976133  0.85547870     1.49400
Zn1084     Zn  0.92807489  0.55296285  0.84957153     1.49100
Zn1085     Zn  0.84139145  0.50736044  0.90457017     1.49500
O1086       O  0.89526589  0.56628907  0.88746912    -1.83100
O1087       O  0.94175978  0.66664701  0.93225824    -0.73800
O1088       O  0.88295667  0.60007153  0.79387113    -0.73600
O1089       O  0.49398076  0.59298664  0.85542657    -0.73100
O1090       O  0.91388124  0.66485675  0.86997658    -0.73800
O1091       O  0.50493275  0.61574950  0.91970955    -0.73400
O1092       O  0.91897834  0.55995043  0.79173215    -0.74000
O1093       O  0.84000321  0.95213796  0.87654790    -0.73400
O1094       O  0.80998056  0.57902741  0.87362458    -0.74100
O1095       O  0.91544281  0.99171552  0.86317450    -0.73500
O1096       O  0.78240553  0.51320037  0.90793888    -0.74000
O1097       O  0.85122377  0.49194730  0.95980955    -0.73900
O1098       O  0.91140130  0.55605428  0.98538895    -0.73700
C1099       C  0.93524449  0.68682093  0.90173980     0.78100
C1100       C  0.90410553  0.58360877  0.77417110     0.78600
C1101       C  0.52054046  0.61163901  0.88557569     0.77600
C1102       C  0.87911255  0.95442516  0.87216561     0.78000
C1103       C  0.77806148  0.54657083  0.89427766     0.79100
C1104       C  0.87873550  0.51325864  0.98893645     0.78100
loop_ 
_geom_bond_atom_site_label_1 
_geom_bond_atom_site_label_2 
_geom_bond_distance 
_geom_bond_site_symmetry_2 
_ccdc_geom_bond_type 
Zn1           O5   1.946       .  S
Zn1           O6   2.029       .  S
Zn1          O10   2.073       .  S
Zn1          O17   2.049       .  S
Zn2           O5   1.903       .  S
Zn2           O7   2.076       .  S
Zn2           O9   2.009       .  S
Zn2          O13   2.098       .  S
Zn3           O5   1.883       .  S
Zn3           O8   1.929       .  S
Zn3          O11   2.055       .  S
Zn3          O14   1.992       .  S
Zn4           O5   1.929       .  S
Zn4          O15   1.939       .  S
Zn4          O16   1.965       .  S
Zn4         O288   2.020       .  S
O6           C18   1.280       .  A
O7           C19   1.291       .  A
O8           C20   1.258       .  A
O9           C18   1.269       .  A
O10          C20   1.272       .  A
O11          C19   1.274       .  A
O12        Zn280   2.020   1_545  S
O12          C21   1.269       .  A
O13          C22   1.290       .  A
O14         C297   1.276       .  A
O15          C22   1.267       .  A
O16          C23   1.266       .  A
O17          C23   1.281       .  A
C18         C114   1.469       .  S
C19          C41   1.496       .  S
C20          C67   1.453       .  S
C21         O290   1.276       .  A
C21         C112   1.460       .  S
C22          C64   1.471       .  S
C23         C249   1.450       .  S
Zn24         O28   1.973       .  S
Zn24         O29   1.911       .  S
Zn24         O33   2.034       .  S
Zn24         O40   2.073       .  S
Zn25         O28   2.003       .  S
Zn25         O32   2.183       .  S
Zn25         O36   2.125       .  S
Zn25        O582   2.051       .  S
Zn26         O28   1.885       .  S
Zn26         O31   1.940       .  S
Zn26         O37   1.999       .  S
Zn26        O586   1.918       .  S
Zn27         O28   1.868       .  S
Zn27         O35   2.042       .  S
Zn27         O38   1.893       .  S
Zn27         O39   1.964       .  S
O29          C41   1.258       .  A
O30        Zn577   2.051   1_455  S
O30          C42   1.275       .  A
O31          C43   1.270       .  A
O32          C41   1.295       .  A
O33          C43   1.278       .  A
O34        Zn578   1.918       .  S
O34          C42   1.262   1_655  A
O35          C44   1.270       .  A
O36          C45   1.288       .  A
O37          C44   1.266       .  A
O38          C45   1.262       .  A
O39          C46   1.274       .  A
O40          C46   1.275       .  A
C42          C92   1.448       .  S
C43         C134   1.457       .  S
C44         C226   1.467       .  S
C45         C138   1.471       .  S
C46          C88   1.472       .  S
Zn47         O51   1.909       .  S
Zn47         O52   1.999       .  S
Zn47         O56   2.092       .  S
Zn47         O63   2.082       .  S
Zn48         O51   1.946       .  S
Zn48         O53   2.082       .  S
Zn48         O55   2.050       .  S
Zn48        O335   2.084       .  S
Zn49         O51   1.937       .  S
Zn49         O54   1.959       .  S
Zn49         O57   1.995       .  S
Zn49        O612   2.016   1_455  S
Zn50         O51   1.886       .  S
Zn50         O58   1.980   1_455  S
Zn50         O62   2.052       .  S
Zn50        O337   1.919       .  S
O52          C64   1.268       .  A
O53          C65   1.286       .  A
O54          C66   1.270       .  A
O55          C64   1.283       .  A
O56          C66   1.290       .  A
O57          C65   1.270       .  A
O58         C619   1.274       .  A
O59        Zn324   2.084   1_545  S
O59          C68   1.274       .  A
O60        Zn601   2.016       .  S
O60          C67   1.269       .  A
O61        Zn326   1.919       .  S
O61          C68   1.258   1_565  A
O62          C69   1.271       .  A
O63          C69   1.290       .  A
C65         C205   1.478       .  S
C66         C113   1.472       .  S
C67         O610   1.274       .  A
C68         C110   1.457       .  S
C69         C367   1.497       .  S
Zn70         O74   1.864       .  S
Zn70         O75   1.918       .  S
Zn70         O79   1.959       .  S
Zn70        O362   1.915   1_545  S
Zn71         O74   2.000       .  S
Zn71         O76   2.134       .  S
Zn71         O78   2.072       .  S
Zn71         O82   2.193       .  S
Zn72         O74   1.876       .  S
Zn72         O77   2.051       .  S
Zn72         O80   1.890       .  S
Zn72         O83   1.958       .  S
Zn73         O74   1.974       .  S
Zn73         O81   2.070       .  S
Zn73         O84   1.910       .  S
Zn73        O361   2.033   1_545  S
O75          C87   1.261       .  A
O76          C88   1.290       .  A
O77          C89   1.270       .  A
O78          C87   1.277       .  A
O79          C89   1.264       .  A
O80          C88   1.261       .  A
O81          C90   1.274       .  A
O82          C91   1.297       .  A
O83          C90   1.273       .  A
O84          C91   1.258       .  A
O85        Zn349   2.033       .  S
O85          C92   1.277       .  A
O86        Zn346   1.915       .  S
O86          C92   1.266       .  A
C87         C135   1.457       .  S
C89         C182   1.470       .  S
C90         C137   1.471       .  S
C91         C345   1.497   1_545  S
Zn93         O97   1.895       .  S
Zn93         O98   1.989       .  S
Zn93        O109   2.064   1_455  S
Zn93        O654   1.921   1_455  S
Zn94         O97   1.932       .  S
Zn94         O99   1.976       .  S
Zn94        O101   2.012       .  S
Zn94        O105   1.943       .  S
Zn95         O97   1.955       .  S
Zn95        O103   2.078       .  S
Zn95        O106   2.050       .  S
Zn95        O652   2.091   1_455  S
Zn96         O97   1.909       .  S
Zn96        O104   2.002       .  S
Zn96        O107   2.087       .  S
Zn96        O108   2.069       .  S
O98         C110   1.276       .  A
O99         C111   1.268       .  A
O100       Zn647   2.091       .  S
O100        C112   1.274       .  A
O101        C110   1.268       .  A
O102       Zn645   1.921       .  S
O102        C112   1.257       .  A
O103        C111   1.286       .  A
O104        C113   1.268       .  A
O105        C114   1.268       .  A
O106        C113   1.281       .  A
O107        C114   1.288       .  A
O108        C115   1.289       .  A
O109        C115   1.273   1_655  A
C111        C159   1.472       .  S
C115        C685   1.497   1_455  S
Zn116       O120   1.976       .  S
Zn116       O121   1.907       .  S
Zn116       O132   2.074       .  S
Zn116       O677   2.041       .  S
Zn117       O120   2.006       .  S
Zn117       O124   2.188       .  S
Zn117       O128   2.129       .  S
Zn117       O398   2.067   1_545  S
Zn118       O120   1.879       .  S
Zn118       O129   1.982       .  S
Zn118       O675   1.932       .  S
Zn118       O402   1.927       .  S
Zn119       O120   1.874       .  S
Zn119       O127   2.037       .  S
Zn119       O130   1.883       .  S
Zn119       O131   1.954       .  S
O121        C133   1.259       .  A
O122       Zn393   2.067       .  S
O122        C134   1.277       .  A
O123       Zn670   1.932   1_455  S
O123        C135   1.268       .  A
O124        C133   1.296       .  A
O125       Zn668   2.041   1_455  S
O125        C135   1.277       .  A
O126       Zn394   1.927       .  S
O126        C134   1.262       .  A
O127        C136   1.268       .  A
O128        C137   1.288       .  A
O129        C136   1.267       .  A
O130        C137   1.260       .  A
O131        C138   1.272       .  A
O132        C138   1.275       .  A
C133        C667   1.497       .  S
C136        C272   1.472       .  S
Zn139       O143   1.919       .  S
Zn139       O144   2.094       .  S
Zn139       O148   2.005       .  S
Zn139       O155   2.096       .  S
Zn140       O143   1.906       .  S
Zn140       O145   1.804       .  S
Zn140       O147   2.016       .  S
Zn140       O703   1.959   1_455  S
Zn141       O143   1.995       .  S
Zn141       O146   2.073       .  S
Zn141       O149   2.105       .  S
Zn141       O152   2.076       .  S
Zn142       O143   1.963       .  S
Zn142       O150   1.971       .  S
Zn142       O154   1.951       .  S
Zn142       O705   2.006   1_455  S
O144        C156   1.285       .  A
O145        C157   1.245       .  A
O146        C158   1.285       .  A
O147        C156   1.265       .  A
O148        C158   1.268       .  A
O149        C157   1.274       .  A
O150        C159   1.265       .  A
O151       Zn692   1.959       .  S
O151        C160   1.268       .  A
O152        C159   1.283       .  A
O153       Zn694   2.006       .  S
O153        C160   1.267       .  A
O154        C161   1.267       .  A
O155        C161   1.293       .  A
C156        C179   1.499   1_554  S
C157        C206   1.456       .  S
C158        C251   1.473       .  S
C160        C248   1.448       .  S
C161        C204   1.469       .  S
Zn162       O166   1.950       .  S
Zn162       O167   1.922       .  S
Zn162       O171   2.058       .  S
Zn162       O178   2.026       .  S
Zn163       O166   1.963       .  S
Zn163       O170   2.194       .  S
Zn163       O174   2.155       .  S
Zn163       O444   2.106   1_545  S
Zn164       O166   1.862       .  S
Zn164       O169   1.961       .  S
Zn164       O175   1.973       .  S
Zn164       O448   1.951   1_545  S
Zn165       O166   1.876       .  S
Zn165       O173   2.044       .  S
Zn165       O176   1.931       .  S
Zn165       O177   2.030       .  S
O167        C179   1.259       .  A
O168       Zn439   2.106       .  S
O168        C180   1.281       .  A
O169        C181   1.272       .  A
O170        C179   1.296       .  A
O171        C181   1.277       .  A
O172       Zn440   1.951       .  S
O172        C180   1.265       .  A
O173        C182   1.273       .  A
O174        C183   1.293       .  A
O175        C182   1.269       .  A
O176        C183   1.259       .  A
O177        C184   1.278       .  A
O178        C184   1.279       .  A
C180        C229   1.472       .  S
C181        C273   1.467       .  S
C183        C275   1.475       .  S
C184        C227   1.460       .  S
Zn185       O189   1.929       .  S
Zn185       O190   2.087       .  S
Zn185       O194   1.945       .  S
Zn185       O201   2.086       .  S
Zn186       O189   1.900       .  S
Zn186       O193   1.998       .  S
Zn186       O197   1.940       .  S
Zn186       O743   1.925   1_455  S
Zn187       O189   1.954       .  S
Zn187       O192   2.090       .  S
Zn187       O198   2.094       .  S
Zn187       O747   2.091   1_455  S
Zn188       O189   1.978       .  S
Zn188       O196   1.976       .  S
Zn188       O200   1.925       .  S
Zn188       O475   2.022       .  S
O190        C202   1.276       .  A
O191       Zn738   1.925       .  S
O191        C203   1.261       .  A
O192        C204   1.286       .  A
O193        C202   1.266       .  A
O194        C204   1.262       .  A
O195       Zn739   2.091       .  S
O195        C203   1.283       .  A
O196        C205   1.266       .  A
O197        C482   1.272       .  A
O198        C205   1.285       .  A
O199       Zn464   2.022   1_545  S
O199        C206   1.262       .  A
O200        C207   1.265       .  A
O201        C207   1.289       .  A
C202        C782   1.489   1_454  S
C203        C252   1.457       .  S
C206        O473   1.272       .  A
C207        C250   1.452       .  S
Zn208       O212   1.912       .  S
Zn208       O213   1.982       .  S
Zn208       O217   2.128       .  S
Zn208       O224   2.110       .  S
Zn209       O212   1.941       .  S
Zn209       O214   2.112       .  S
Zn209       O216   2.086       .  S
Zn209       O772   2.127       .  S
Zn210       O212   1.917       .  S
Zn210       O215   1.901       .  S
Zn210       O218   1.954       .  S
Zn210       O221   2.002       .  S
Zn211       O212   1.863       .  S
Zn211       O219   1.968       .  S
Zn211       O223   2.018       .  S
Zn211       O774   1.943       .  S
O213        C225   1.265       .  A
O214        C226   1.288       .  A
O215        C227   1.262       .  A
O216        C225   1.287       .  A
O217        C227   1.295       .  A
O218        C226   1.265       .  A
O219        C228   1.271       .  A
O220       Zn761   2.127   1_455  S
O220        C229   1.279       .  A
O221        C228   1.265       .  A
O222       Zn763   1.943   1_455  S
O222        C229   1.258       .  A
O223        C230   1.272       .  A
O224        C230   1.289       .  A
C225        C271   1.468       .  S
C228        C274   1.448       .  S
C230        C754   1.489   1_556  S
Zn231       O235   1.926       .  S
Zn231       O240   2.036       .  S
Zn231       O247   1.994       .  S
Zn231       O512   1.995       .  S
Zn232       O235   1.873       .  S
Zn232       O237   1.969       .  S
Zn232       O243   1.970       .  S
Zn232       O515   1.972       .  S
Zn233       O235   1.859       .  S
Zn233       O238   1.997       .  S
Zn233       O241   2.024       .  S
Zn233       O244   1.945       .  S
Zn234       O235   1.914       .  S
Zn234       O242   2.143       .  S
Zn234       O245   2.083       .  S
Zn234       O246   2.167       .  S
O236       Zn507   1.995   1_545  S
O236        C248   1.276       .  A
O237        C249   1.265       .  A
O238        C250   1.275       .  A
O239       Zn508   1.972       .  S
O239        C248   1.275   1_565  A
O240        C250   1.279       .  A
O241        C249   1.272       .  A
O242        C251   1.292       .  A
O243        C252   1.262       .  A
O244        C251   1.261       .  A
O245        C252   1.285       .  A
O246        C253   1.297       .  A
O247        C253   1.264       .  A
C253        C552   1.497   1_554  S
Zn254       O258   1.972       .  S
Zn254       O259   2.121       .  S
Zn254       O270   2.180       .  S
Zn254       O815   2.105       .  S
Zn255       O258   1.899       .  S
Zn255       O260   2.055       .  S
Zn255       O262   1.947       .  S
Zn255       O266   2.009       .  S
Zn256       O258   1.864       .  S
Zn256       O264   1.964       .  S
Zn256       O813   1.922       .  S
Zn256       O543   1.927   1_545  S
Zn257       O258   1.975       .  S
Zn257       O268   2.078       .  S
Zn257       O269   1.967   1_545  S
Zn257       O541   2.040   1_545  S
O259        C271   1.291       .  A
O260        C272   1.273       .  A
O261       Zn808   1.922       .  S
O261        C273   1.260   1_655  A
O262        C271   1.265       .  A
O263       Zn806   2.105   1_455  S
O263        C273   1.282       .  A
O264        C272   1.266       .  A
O265       Zn533   2.040       .  S
O265        C274   1.278       .  A
O266        C275   1.279       .  A
O267       Zn532   1.927       .  S
O267        C274   1.266       .  A
O268        C275   1.279       .  A
O269        C276   1.263   1_565  A
O270        C276   1.298       .  A
C276        C529   1.497   1_546  S
Zn277       O281   1.946       .  S
Zn277       O282   2.029       .  S
Zn277       O286   2.073       .  S
Zn277       O293   2.049       .  S
Zn278       O281   1.903       .  S
Zn278       O283   2.076       .  S
Zn278       O285   2.009       .  S
Zn278       O289   2.098       .  S
Zn279       O281   1.883       .  S
Zn279       O284   1.929       .  S
Zn279       O287   2.055       .  S
Zn279       O290   1.992   1_565  S
Zn280       O281   1.929       .  S
Zn280       O291   1.939       .  S
Zn280       O292   1.965       .  S
O282        C294   1.280       .  A
O283        C295   1.291       .  A
O284        C296   1.258       .  A
O285        C294   1.269       .  A
O286        C296   1.272       .  A
O287        C295   1.274       .  A
O288        C297   1.269       .  A
O289        C298   1.290       .  A
O291        C298   1.267       .  A
O292        C299   1.266       .  A
O293        C299   1.281       .  A
C294        C390   1.469       .  S
C295        C317   1.496       .  S
C296        C343   1.453       .  S
C297        C388   1.460       .  S
C298        C340   1.471       .  S
C299        C525   1.450       .  S
Zn300       O304   1.973       .  S
Zn300       O305   1.911       .  S
Zn300       O309   2.034       .  S
Zn300       O316   2.073       .  S
Zn301       O304   2.003       .  S
Zn301       O858   2.051       .  S
Zn301       O308   2.183       .  S
Zn301       O312   2.125       .  S
Zn302       O304   1.885       .  S
Zn302       O307   1.940       .  S
Zn302       O862   1.918       .  S
Zn302       O313   1.999       .  S
Zn303       O304   1.868       .  S
Zn303       O311   2.042       .  S
Zn303       O314   1.893       .  S
Zn303       O315   1.964       .  S
O305        C317   1.258       .  A
O306       Zn853   2.051   1_455  S
O306        C318   1.275       .  A
O307        C319   1.270       .  A
O308        C317   1.295       .  A
O309        C319   1.278       .  A
O310       Zn854   1.918       .  S
O310        C318   1.262   1_655  A
O311        C320   1.270       .  A
O312        C321   1.288       .  A
O313        C320   1.266       .  A
O314        C321   1.262       .  A
O315        C322   1.274       .  A
O316        C322   1.275       .  A
C318        C368   1.448       .  S
C319        C410   1.457       .  S
C320        C502   1.467       .  S
C321        C414   1.471       .  S
C322        C364   1.472       .  S
Zn323       O327   1.909       .  S
Zn323       O328   1.999       .  S
Zn323       O332   2.092       .  S
Zn323       O339   2.082       .  S
Zn324       O327   1.946       .  S
Zn324       O329   2.082       .  S
Zn324       O331   2.050       .  S
Zn325       O327   1.937       .  S
Zn325       O330   1.959       .  S
Zn325       O333   1.995       .  S
Zn325       O888   2.016   1_455  S
Zn326       O327   1.886       .  S
Zn326       O334   1.980   1_455  S
Zn326       O338   2.052       .  S
O328        C340   1.268       .  A
O329        C341   1.286       .  A
O330        C342   1.270       .  A
O331        C340   1.283       .  A
O332        C342   1.290       .  A
O333        C341   1.270       .  A
O334        C895   1.274       .  A
O335        C344   1.274       .  A
O336       Zn877   2.016       .  S
O336        C343   1.269       .  A
O337        C344   1.258       .  A
O338        C345   1.271       .  A
O339        C345   1.290       .  A
C341        C481   1.478       .  S
C342        C389   1.472       .  S
C343        O886   1.274       .  A
C344        C386   1.457       .  S
Zn346       O350   1.864       .  S
Zn346       O351   1.918       .  S
Zn346       O355   1.959       .  S
Zn347       O350   2.000       .  S
Zn347       O352   2.134       .  S
Zn347       O354   2.072       .  S
Zn347       O358   2.193       .  S
Zn348       O350   1.876       .  S
Zn348       O353   2.051       .  S
Zn348       O356   1.890       .  S
Zn348       O359   1.958       .  S
Zn349       O350   1.974       .  S
Zn349       O357   2.070       .  S
Zn349       O360   1.910       .  S
O351        C363   1.260       .  A
O352        C364   1.290       .  A
O353        C365   1.270       .  A
O354        C363   1.277       .  A
O355        C365   1.264       .  A
O356        C364   1.261       .  A
O357        C366   1.274       .  A
O358        C367   1.297       .  A
O359        C366   1.273       .  A
O360        C367   1.258       .  A
O361        C368   1.277       .  A
O362        C368   1.266       .  A
C363        C411   1.457       .  S
C365        C458   1.470       .  S
C366        C413   1.471       .  S
Zn369       O373   1.895       .  S
Zn369       O374   1.989       .  S
Zn369       O930   1.921   1_455  S
Zn369       O385   2.064   1_455  S
Zn370       O373   1.932       .  S
Zn370       O375   1.976       .  S
Zn370       O377   2.012       .  S
Zn370       O381   1.943       .  S
Zn371       O373   1.955       .  S
Zn371       O928   2.091   1_455  S
Zn371       O379   2.078       .  S
Zn371       O382   2.050       .  S
Zn372       O373   1.909       .  S
Zn372       O380   2.002       .  S
Zn372       O383   2.087       .  S
Zn372       O384   2.069       .  S
O374        C386   1.276       .  A
O375        C387   1.268       .  A
O376       Zn923   2.091       .  S
O376        C388   1.274       .  A
O377        C386   1.268       .  A
O378       Zn921   1.921       .  S
O378        C388   1.257       .  A
O379        C387   1.286       .  A
O380        C389   1.268       .  A
O381        C390   1.268       .  A
O382        C389   1.281       .  A
O383        C390   1.288       .  A
O384        C391   1.289       .  A
O385        C391   1.273   1_655  A
C387        C435   1.472       .  S
C391        C961   1.497   1_455  S
Zn392       O396   1.976       .  S
Zn392       O397   1.907       .  S
Zn392       O953   2.041       .  S
Zn392       O408   2.074       .  S
Zn393       O396   2.006       .  S
Zn393       O400   2.188       .  S
Zn393       O404   2.129       .  S
Zn394       O396   1.879       .  S
Zn394       O951   1.932       .  S
Zn394       O405   1.982       .  S
Zn395       O396   1.874       .  S
Zn395       O403   2.037       .  S
Zn395       O406   1.883       .  S
Zn395       O407   1.954       .  S
O397        C409   1.259       .  A
O398        C410   1.277       .  A
O399       Zn946   1.932   1_455  S
O399        C411   1.269       .  A
O400        C409   1.295       .  A
O401       Zn944   2.041   1_455  S
O401        C411   1.277       .  A
O402        C410   1.262   1_545  A
O403        C412   1.268       .  A
O404        C413   1.288       .  A
O405        C412   1.267       .  A
O406        C413   1.260       .  A
O407        C414   1.272       .  A
O408        C414   1.275       .  A
C409        C943   1.497       .  S
C412        C548   1.472       .  S
Zn415       O419   1.919       .  S
Zn415       O420   2.094       .  S
Zn415       O424   2.005       .  S
Zn415       O431   2.096       .  S
Zn416       O419   1.906       .  S
Zn416       O421   1.804       .  S
Zn416       O423   2.016       .  S
Zn416       O979   1.959   1_455  S
Zn417       O419   1.995       .  S
Zn417       O422   2.073       .  S
Zn417       O425   2.105       .  S
Zn417       O428   2.076       .  S
Zn418       O419   1.963       .  S
Zn418       O426   1.971       .  S
Zn418       O981   2.006   1_455  S
Zn418       O430   1.951       .  S
O420        C432   1.285       .  A
O421        C433   1.245       .  A
O422        C434   1.285       .  A
O423        C432   1.265       .  A
O424        C434   1.268       .  A
O425        C433   1.274       .  A
O426        C435   1.265       .  A
O427       Zn968   1.959       .  S
O427        C436   1.268       .  A
O428        C435   1.283       .  A
O429       Zn970   2.006       .  S
O429        C436   1.267       .  A
O430        C437   1.267       .  A
O431        C437   1.293       .  A
C432        C455   1.500   1_554  S
C433        C482   1.456       .  S
C434        C527   1.473       .  S
C436        C524   1.448       .  S
C437        C480   1.469       .  S
Zn438       O442   1.950       .  S
Zn438       O443   1.922       .  S
Zn438       O447   2.058       .  S
Zn438       O454   2.026       .  S
Zn439       O442   1.963       .  S
Zn439       O446   2.195       .  S
Zn439       O450   2.155       .  S
Zn440       O442   1.862       .  S
Zn440       O445   1.961       .  S
Zn440       O451   1.973       .  S
Zn441       O442   1.876       .  S
Zn441       O449   2.044       .  S
Zn441       O452   1.931       .  S
Zn441       O453   2.030       .  S
O443        C455   1.259       .  A
O444        C456   1.281       .  A
O445        C457   1.272       .  A
O446        C455   1.296       .  A
O447        C457   1.277       .  A
O448        C456   1.265       .  A
O449        C458   1.273       .  A
O450        C459   1.293       .  A
O451        C458   1.269       .  A
O452        C459   1.259       .  A
O453        C460   1.278       .  A
O454        C460   1.279       .  A
C456        C505   1.472       .  S
C457        C549   1.467       .  S
C459        C551   1.475       .  S
C460        C503   1.460       .  S
Zn461       O465   1.929       .  S
Zn461       O466   2.087       .  S
Zn461       O470   1.945       .  S
Zn461       O477   2.086       .  S
Zn462       O465   1.900       .  S
Zn462      O1019   1.925   1_455  S
Zn462       O469   1.998       .  S
Zn462       O473   1.940   1_565  S
Zn463       O465   1.954       .  S
Zn463       O468   2.090       .  S
Zn463      O1023   2.091   1_455  S
Zn463       O474   2.094       .  S
Zn464       O465   1.978       .  S
Zn464       O472   1.976       .  S
Zn464       O476   1.925       .  S
O466        C478   1.276       .  A
O467      Zn1014   1.925       .  S
O467        C479   1.261       .  A
O468        C480   1.286       .  A
O469        C478   1.266       .  A
O470        C480   1.262       .  A
O471      Zn1015   2.091       .  S
O471        C479   1.283       .  A
O472        C481   1.266       .  A
O474        C481   1.285       .  A
O475        C482   1.262       .  A
O476        C483   1.265       .  A
O477        C483   1.289       .  A
C478       C1058   1.489   1_454  S
C479        C528   1.457       .  S
C483        C526   1.452       .  S
Zn484       O488   1.912       .  S
Zn484       O489   1.982       .  S
Zn484       O493   2.128       .  S
Zn484       O500   2.110       .  S
Zn485       O488   1.941       .  S
Zn485       O490   2.112       .  S
Zn485       O492   2.086       .  S
Zn485      O1048   2.127       .  S
Zn486       O488   1.917       .  S
Zn486       O491   1.901       .  S
Zn486       O494   1.954       .  S
Zn486       O497   2.002       .  S
Zn487       O488   1.863       .  S
Zn487       O495   1.968       .  S
Zn487      O1050   1.943       .  S
Zn487       O499   2.018       .  S
O489        C501   1.265       .  A
O490        C502   1.288       .  A
O491        C503   1.262       .  A
O492        C501   1.287       .  A
O493        C503   1.295       .  A
O494        C502   1.265       .  A
O495        C504   1.271       .  A
O496      Zn1037   2.127   1_455  S
O496        C505   1.278       .  A
O497        C504   1.265       .  A
O498      Zn1039   1.943   1_455  S
O498        C505   1.258       .  A
O499        C506   1.272       .  A
O500        C506   1.289       .  A
C501        C547   1.468       .  S
C504        C550   1.448       .  S
C506       C1030   1.489   1_556  S
Zn507       O511   1.926       .  S
Zn507       O516   2.036       .  S
Zn507       O523   1.994   1_565  S
Zn508       O511   1.873       .  S
Zn508       O513   1.969       .  S
Zn508       O519   1.970       .  S
Zn509       O511   1.859       .  S
Zn509       O514   1.997       .  S
Zn509       O517   2.024       .  S
Zn509       O520   1.945       .  S
Zn510       O511   1.914       .  S
Zn510       O518   2.143       .  S
Zn510       O521   2.083       .  S
Zn510       O522   2.167       .  S
O512        C524   1.276       .  A
O513        C525   1.265       .  A
O514        C526   1.275       .  A
O515        C524   1.275       .  A
O516        C526   1.279       .  A
O517        C525   1.272       .  A
O518        C527   1.292       .  A
O519        C528   1.262       .  A
O520        C527   1.261       .  A
O521        C528   1.285       .  A
O522        C529   1.297       .  A
O523        C529   1.264   1_545  A
Zn530       O534   1.972       .  S
Zn530       O535   2.121       .  S
Zn530      O1091   2.105       .  S
Zn530       O546   2.180       .  S
Zn531       O534   1.899       .  S
Zn531       O536   2.055       .  S
Zn531       O538   1.947       .  S
Zn531       O542   2.009       .  S
Zn532       O534   1.864       .  S
Zn532      O1089   1.922       .  S
Zn532       O540   1.964       .  S
Zn533       O534   1.975       .  S
Zn533       O544   2.078       .  S
Zn533       O545   1.967       .  S
O535        C547   1.291       .  A
O536        C548   1.273       .  A
O537      Zn1084   1.922       .  S
O537        C549   1.260   1_655  A
O538        C547   1.265       .  A
O539      Zn1082   2.105   1_455  S
O539        C549   1.282       .  A
O540        C548   1.266       .  A
O541        C550   1.278       .  A
O542        C551   1.279       .  A
O543        C550   1.266       .  A
O544        C551   1.279       .  A
O545        C552   1.263       .  A
O546        C552   1.298       .  A
Zn553       O557   1.946       .  S
Zn553       O558   2.029       .  S
Zn553       O562   2.073       .  S
Zn553       O569   2.049       .  S
Zn554       O557   1.903       .  S
Zn554       O559   2.076       .  S
Zn554       O561   2.009       .  S
Zn554       O565   2.098       .  S
Zn555       O557   1.883       .  S
Zn555       O560   1.929       .  S
Zn555       O563   2.055       .  S
Zn555       O566   1.992       .  S
Zn556       O557   1.929       .  S
Zn556       O840   2.020       .  S
Zn556       O567   1.939       .  S
Zn556       O568   1.965       .  S
O558        C570   1.280       .  A
O559        C571   1.291       .  A
O560        C572   1.258       .  A
O561        C570   1.269       .  A
O562        C572   1.272       .  A
O563        C571   1.274       .  A
O564       Zn832   2.020   1_545  S
O564        C573   1.269       .  A
O565        C574   1.290       .  A
O566        C849   1.276       .  A
O567        C574   1.267       .  A
O568        C575   1.266       .  A
O569        C575   1.281       .  A
C570        C666   1.469       .  S
C571        C593   1.496       .  S
C572        C619   1.453       .  S
C573        O842   1.276       .  A
C573        C664   1.460       .  S
C574        C616   1.471       .  S
C575        C801   1.450       .  S
Zn576       O580   1.973       .  S
Zn576       O581   1.911       .  S
Zn576       O585   2.034       .  S
Zn576       O592   2.073       .  S
Zn577       O580   2.003       .  S
Zn577       O584   2.183       .  S
Zn577       O588   2.125       .  S
Zn578       O580   1.885       .  S
Zn578       O583   1.940       .  S
Zn578       O589   1.999       .  S
Zn579       O580   1.868       .  S
Zn579       O587   2.042       .  S
Zn579       O590   1.893       .  S
Zn579       O591   1.964       .  S
O581        C593   1.258       .  A
O582        C594   1.275       .  A
O583        C595   1.270       .  A
O584        C593   1.294       .  A
O585        C595   1.278       .  A
O586        C594   1.262       .  A
O587        C596   1.270       .  A
O588        C597   1.288       .  A
O589        C596   1.266       .  A
O590        C597   1.262       .  A
O591        C598   1.274       .  A
O592        C598   1.275       .  A
C594        C644   1.448       .  S
C595        C686   1.457       .  S
C596        C778   1.467       .  S
C597        C690   1.471       .  S
C598        C640   1.472       .  S
Zn599       O603   1.909       .  S
Zn599       O604   1.999       .  S
Zn599       O608   2.092       .  S
Zn599       O615   2.082       .  S
Zn600       O603   1.946       .  S
Zn600       O605   2.082       .  S
Zn600       O607   2.050       .  S
Zn600       O887   2.084       .  S
Zn601       O603   1.937       .  S
Zn601       O606   1.959       .  S
Zn601       O609   1.995       .  S
Zn602       O603   1.886       .  S
Zn602       O610   1.980       .  S
Zn602       O889   1.919       .  S
Zn602       O614   2.052       .  S
O604        C616   1.268       .  A
O605        C617   1.286       .  A
O606        C618   1.270       .  A
O607        C616   1.283       .  A
O608        C618   1.290       .  A
O609        C617   1.270       .  A
O611       Zn876   2.084   1_545  S
O611        C620   1.274       .  A
O612        C619   1.269       .  A
O613       Zn878   1.919       .  S
O613        C620   1.258   1_565  A
O614        C621   1.271       .  A
O615        C621   1.290       .  A
C617        C757   1.478       .  S
C618        C665   1.472       .  S
C620        C662   1.457       .  S
C621        C919   1.497       .  S
Zn622       O626   1.864       .  S
Zn622       O627   1.918       .  S
Zn622       O631   1.959       .  S
Zn622       O914   1.915   1_545  S
Zn623       O626   2.000       .  S
Zn623       O628   2.134       .  S
Zn623       O630   2.072       .  S
Zn623       O634   2.193       .  S
Zn624       O626   1.876       .  S
Zn624       O629   2.051       .  S
Zn624       O632   1.890       .  S
Zn624       O635   1.958       .  S
Zn625       O626   1.974       .  S
Zn625       O633   2.070       .  S
Zn625       O636   1.910       .  S
Zn625       O913   2.033   1_545  S
O627        C639   1.260       .  A
O628        C640   1.290       .  A
O629        C641   1.270       .  A
O630        C639   1.277       .  A
O631        C641   1.264       .  A
O632        C640   1.262       .  A
O633        C642   1.274       .  A
O634        C643   1.297       .  A
O635        C642   1.273       .  A
O636        C643   1.258       .  A
O637       Zn901   2.033       .  S
O637        C644   1.277       .  A
O638       Zn898   1.915       .  S
O638        C644   1.266       .  A
C639        C687   1.457       .  S
C641        C734   1.470       .  S
C642        C689   1.471       .  S
C643        C897   1.497   1_545  S
Zn645       O649   1.895       .  S
Zn645       O650   1.989       .  S
Zn645       O661   2.064       .  S
Zn646       O649   1.932       .  S
Zn646       O651   1.976       .  S
Zn646       O653   2.012       .  S
Zn646       O657   1.943       .  S
Zn647       O649   1.955       .  S
Zn647       O655   2.078       .  S
Zn647       O658   2.050       .  S
Zn648       O649   1.909       .  S
Zn648       O656   2.002       .  S
Zn648       O659   2.087       .  S
Zn648       O660   2.069       .  S
O650        C662   1.276       .  A
O651        C663   1.268       .  A
O652        C664   1.274       .  A
O653        C662   1.268       .  A
O654        C664   1.257       .  A
O655        C663   1.286       .  A
O656        C665   1.268       .  A
O657        C666   1.268       .  A
O658        C665   1.282       .  A
O659        C666   1.288       .  A
O660        C667   1.289       .  A
O661        C667   1.274       .  A
C663        C711   1.472       .  S
Zn668       O672   1.976       .  S
Zn668       O673   1.907       .  S
Zn668       O684   2.074       .  S
Zn669       O672   2.006       .  S
Zn669       O950   2.067   1_545  S
Zn669       O676   2.188       .  S
Zn669       O680   2.129       .  S
Zn670       O672   1.879       .  S
Zn670       O954   1.927       .  S
Zn670       O681   1.982       .  S
Zn671       O672   1.874       .  S
Zn671       O679   2.037       .  S
Zn671       O682   1.883       .  S
Zn671       O683   1.954       .  S
O673        C685   1.259       .  A
O674       Zn945   2.067       .  S
O674        C686   1.277       .  A
O675        C687   1.269       .  A
O676        C685   1.296       .  A
O677        C687   1.277       .  A
O678       Zn946   1.927       .  S
O678        C686   1.262       .  A
O679        C688   1.268       .  A
O680        C689   1.288       .  A
O681        C688   1.267       .  A
O682        C689   1.260       .  A
O683        C690   1.272       .  A
O684        C690   1.275       .  A
C688        C824   1.472       .  S
Zn691       O695   1.919       .  S
Zn691       O696   2.094       .  S
Zn691       O700   2.005       .  S
Zn691       O707   2.096       .  S
Zn692       O695   1.906       .  S
Zn692       O697   1.804       .  S
Zn692       O699   2.016       .  S
Zn693       O695   1.995       .  S
Zn693       O698   2.073       .  S
Zn693       O701   2.105       .  S
Zn693       O704   2.076       .  S
Zn694       O695   1.963       .  S
Zn694       O702   1.971       .  S
Zn694       O706   1.951       .  S
O696        C708   1.285       .  A
O697        C709   1.245       .  A
O698        C710   1.285       .  A
O699        C708   1.265       .  A
O700        C710   1.268       .  A
O701        C709   1.274       .  A
O702        C711   1.265       .  A
O703        C712   1.268       .  A
O704        C711   1.283       .  A
O705        C712   1.267       .  A
O706        C713   1.267       .  A
O707        C713   1.293       .  A
C708        C731   1.499   1_554  S
C709        C758   1.456       .  S
C710        C803   1.473       .  S
C712        C800   1.448       .  S
C713        C756   1.469       .  S
Zn714       O718   1.950       .  S
Zn714       O719   1.922       .  S
Zn714       O723   2.058       .  S
Zn714       O730   2.026       .  S
Zn715       O718   1.963       .  S
Zn715       O996   2.106   1_545  S
Zn715       O722   2.194       .  S
Zn715       O726   2.155       .  S
Zn716       O718   1.862       .  S
Zn716       O721   1.961       .  S
Zn716      O1000   1.951   1_545  S
Zn716       O727   1.973       .  S
Zn717       O718   1.876       .  S
Zn717       O725   2.044       .  S
Zn717       O728   1.931       .  S
Zn717       O729   2.030       .  S
O719        C731   1.259       .  A
O720       Zn991   2.106       .  S
O720        C732   1.281       .  A
O721        C733   1.272       .  A
O722        C731   1.296       .  A
O723        C733   1.277       .  A
O724       Zn992   1.951       .  S
O724        C732   1.265       .  A
O725        C734   1.273       .  A
O726        C735   1.293       .  A
O727        C734   1.269       .  A
O728        C735   1.259       .  A
O729        C736   1.278       .  A
O730        C736   1.279       .  A
C732        C781   1.472       .  S
C733        C825   1.467       .  S
C735        C827   1.475       .  S
C736        C779   1.460       .  S
Zn737       O741   1.929       .  S
Zn737       O742   2.087       .  S
Zn737       O746   1.945       .  S
Zn737       O753   2.086       .  S
Zn738       O741   1.900       .  S
Zn738       O745   1.998       .  S
Zn738       O749   1.940       .  S
Zn739       O741   1.954       .  S
Zn739       O744   2.090       .  S
Zn739       O750   2.094       .  S
Zn740       O741   1.978       .  S
Zn740       O748   1.976       .  S
Zn740      O1027   2.022       .  S
Zn740       O752   1.925       .  S
O742        C754   1.276       .  A
O743        C755   1.261       .  A
O744        C756   1.286       .  A
O745        C754   1.266       .  A
O746        C756   1.262       .  A
O747        C755   1.283       .  A
O748        C757   1.266       .  A
O749       C1034   1.272       .  A
O750        C757   1.285       .  A
O751      Zn1016   2.022   1_545  S
O751        C758   1.262       .  A
O752        C759   1.265       .  A
O753        C759   1.289       .  A
C755        C804   1.457       .  S
C758       O1025   1.272       .  A
C759        C802   1.452       .  S
Zn760       O764   1.912       .  S
Zn760       O765   1.982       .  S
Zn760       O769   2.128       .  S
Zn760       O776   2.110       .  S
Zn761       O764   1.941       .  S
Zn761       O766   2.112       .  S
Zn761       O768   2.086       .  S
Zn762       O764   1.917       .  S
Zn762       O767   1.901       .  S
Zn762       O770   1.954       .  S
Zn762       O773   2.002       .  S
Zn763       O764   1.863       .  S
Zn763       O771   1.968       .  S
Zn763       O775   2.018       .  S
O765        C777   1.265       .  A
O766        C778   1.288       .  A
O767        C779   1.262       .  A
O768        C777   1.287       .  A
O769        C779   1.295       .  A
O770        C778   1.265       .  A
O771        C780   1.271       .  A
O772        C781   1.278       .  A
O773        C780   1.265       .  A
O774        C781   1.258       .  A
O775        C782   1.272       .  A
O776        C782   1.289       .  A
C777        C823   1.468       .  S
C780        C826   1.448       .  S
Zn783       O787   1.926       .  S
Zn783      O1064   1.995       .  S
Zn783       O792   2.036       .  S
Zn783       O799   1.994       .  S
Zn784       O787   1.873       .  S
Zn784       O789   1.969       .  S
Zn784      O1067   1.972       .  S
Zn784       O795   1.970       .  S
Zn785       O787   1.859       .  S
Zn785       O790   1.997       .  S
Zn785       O793   2.024       .  S
Zn785       O796   1.945       .  S
Zn786       O787   1.914       .  S
Zn786       O794   2.143       .  S
Zn786       O797   2.083       .  S
Zn786       O798   2.167       .  S
O788      Zn1059   1.995   1_545  S
O788        C800   1.276       .  A
O789        C801   1.265       .  A
O790        C802   1.275       .  A
O791      Zn1060   1.972       .  S
O791        C800   1.275   1_565  A
O792        C802   1.279       .  A
O793        C801   1.272       .  A
O794        C803   1.292       .  A
O795        C804   1.262       .  A
O796        C803   1.261       .  A
O797        C804   1.285       .  A
O798        C805   1.297       .  A
O799        C805   1.264       .  A
C805       C1104   1.497   1_554  S
Zn806       O810   1.972       .  S
Zn806       O811   2.121       .  S
Zn806       O822   2.180       .  S
Zn807       O810   1.899       .  S
Zn807       O812   2.055       .  S
Zn807       O814   1.947       .  S
Zn807       O818   2.009       .  S
Zn808       O810   1.864       .  S
Zn808       O816   1.964       .  S
Zn808      O1095   1.927   1_545  S
Zn809       O810   1.975       .  S
Zn809      O1093   2.040   1_545  S
Zn809       O820   2.078       .  S
Zn809       O821   1.967   1_545  S
O811        C823   1.291       .  A
O812        C824   1.273       .  A
O813        C825   1.260       .  A
O814        C823   1.265       .  A
O815        C825   1.282       .  A
O816        C824   1.266       .  A
O817      Zn1085   2.040       .  S
O817        C826   1.278       .  A
O818        C827   1.279       .  A
O819      Zn1084   1.927       .  S
O819        C826   1.266       .  A
O820        C827   1.279       .  A
O821        C828   1.263   1_565  A
O822        C828   1.298       .  A
C828       C1081   1.497   1_546  S
Zn829       O833   1.946       .  S
Zn829       O834   2.029       .  S
Zn829       O838   2.073       .  S
Zn829       O845   2.049       .  S
Zn830       O833   1.903       .  S
Zn830       O835   2.076       .  S
Zn830       O837   2.009       .  S
Zn830       O841   2.098       .  S
Zn831       O833   1.883       .  S
Zn831       O836   1.929       .  S
Zn831       O839   2.055       .  S
Zn831       O842   1.992   1_565  S
Zn832       O833   1.929       .  S
Zn832       O843   1.939       .  S
Zn832       O844   1.965       .  S
O834        C846   1.280       .  A
O835        C847   1.291       .  A
O836        C848   1.258       .  A
O837        C846   1.269       .  A
O838        C848   1.272       .  A
O839        C847   1.274       .  A
O840        C849   1.269       .  A
O841        C850   1.290       .  A
O843        C850   1.267       .  A
O844        C851   1.266       .  A
O845        C851   1.281       .  A
C846        C942   1.469       .  S
C847        C869   1.496       .  S
C848        C895   1.453       .  S
C849        C940   1.460       .  S
C850        C892   1.471       .  S
C851       C1077   1.450       .  S
Zn852       O856   1.973       .  S
Zn852       O857   1.911       .  S
Zn852       O861   2.034       .  S
Zn852       O868   2.073       .  S
Zn853       O856   2.003       .  S
Zn853       O860   2.183       .  S
Zn853       O864   2.125       .  S
Zn854       O856   1.885       .  S
Zn854       O859   1.940       .  S
Zn854       O865   1.999       .  S
Zn855       O856   1.868       .  S
Zn855       O863   2.042       .  S
Zn855       O866   1.893       .  S
Zn855       O867   1.964       .  S
O857        C869   1.258       .  A
O858        C870   1.275       .  A
O859        C871   1.270       .  A
O860        C869   1.295       .  A
O861        C871   1.278       .  A
O862        C870   1.262       .  A
O863        C872   1.270       .  A
O864        C873   1.288       .  A
O865        C872   1.266       .  A
O866        C873   1.262       .  A
O867        C874   1.274       .  A
O868        C874   1.275       .  A
C870        C920   1.448       .  S
C871        C962   1.457       .  S
C872       C1054   1.467       .  S
C873        C966   1.471       .  S
C874        C916   1.472       .  S
Zn875       O879   1.909       .  S
Zn875       O880   1.999       .  S
Zn875       O884   2.092       .  S
Zn875       O891   2.082       .  S
Zn876       O879   1.946       .  S
Zn876       O881   2.082       .  S
Zn876       O883   2.050       .  S
Zn877       O879   1.937       .  S
Zn877       O882   1.959       .  S
Zn877       O885   1.995       .  S
Zn878       O879   1.886       .  S
Zn878       O886   1.980       .  S
Zn878       O890   2.052       .  S
O880        C892   1.268       .  A
O881        C893   1.286       .  A
O882        C894   1.270       .  A
O883        C892   1.283       .  A
O884        C894   1.290       .  A
O885        C893   1.270       .  A
O887        C896   1.274       .  A
O888        C895   1.269       .  A
O889        C896   1.258       .  A
O890        C897   1.271       .  A
O891        C897   1.290       .  A
C893       C1033   1.478       .  S
C894        C941   1.472       .  S
C896        C938   1.457       .  S
Zn898       O902   1.864       .  S
Zn898       O903   1.918       .  S
Zn898       O907   1.959       .  S
Zn899       O902   2.000       .  S
Zn899       O904   2.134       .  S
Zn899       O906   2.072       .  S
Zn899       O910   2.193       .  S
Zn900       O902   1.876       .  S
Zn900       O905   2.051       .  S
Zn900       O908   1.890       .  S
Zn900       O911   1.958       .  S
Zn901       O902   1.974       .  S
Zn901       O909   2.070       .  S
Zn901       O912   1.910       .  S
O903        C915   1.260       .  A
O904        C916   1.290       .  A
O905        C917   1.270       .  A
O906        C915   1.277       .  A
O907        C917   1.264       .  A
O908        C916   1.261       .  A
O909        C918   1.274       .  A
O910        C919   1.297       .  A
O911        C918   1.273       .  A
O912        C919   1.258       .  A
O913        C920   1.277       .  A
O914        C920   1.266       .  A
C915        C963   1.457       .  S
C917       C1010   1.470       .  S
C918        C965   1.471       .  S
Zn921       O925   1.895       .  S
Zn921       O926   1.989       .  S
Zn921       O937   2.064       .  S
Zn922       O925   1.932       .  S
Zn922       O927   1.976       .  S
Zn922       O929   2.012       .  S
Zn922       O933   1.943       .  S
Zn923       O925   1.955       .  S
Zn923       O931   2.078       .  S
Zn923       O934   2.050       .  S
Zn924       O925   1.909       .  S
Zn924       O932   2.002       .  S
Zn924       O935   2.087       .  S
Zn924       O936   2.069       .  S
O926        C938   1.276       .  A
O927        C939   1.268       .  A
O928        C940   1.274       .  A
O929        C938   1.268       .  A
O930        C940   1.257       .  A
O931        C939   1.286       .  A
O932        C941   1.268       .  A
O933        C942   1.268       .  A
O934        C941   1.281       .  A
O935        C942   1.288       .  A
O936        C943   1.289       .  A
O937        C943   1.273       .  A
C939        C987   1.472       .  S
Zn944       O948   1.976       .  S
Zn944       O949   1.907       .  S
Zn944       O960   2.074       .  S
Zn945       O948   2.006       .  S
Zn945       O952   2.188       .  S
Zn945       O956   2.129       .  S
Zn946       O948   1.879       .  S
Zn946       O957   1.982       .  S
Zn947       O948   1.874       .  S
Zn947       O955   2.037       .  S
Zn947       O958   1.883       .  S
Zn947       O959   1.954       .  S
O949        C961   1.259       .  A
O950        C962   1.277       .  A
O951        C963   1.268       .  A
O952        C961   1.295       .  A
O953        C963   1.277       .  A
O954        C962   1.262   1_545  A
O955        C964   1.268       .  A
O956        C965   1.288       .  A
O957        C964   1.267       .  A
O958        C965   1.260       .  A
O959        C966   1.272       .  A
O960        C966   1.275       .  A
C964       C1100   1.472       .  S
Zn967       O971   1.919       .  S
Zn967       O972   2.094       .  S
Zn967       O976   2.005       .  S
Zn967       O983   2.096       .  S
Zn968       O971   1.906       .  S
Zn968       O973   1.804       .  S
Zn968       O975   2.016       .  S
Zn969       O971   1.995       .  S
Zn969       O974   2.073       .  S
Zn969       O977   2.105       .  S
Zn969       O980   2.076       .  S
Zn970       O971   1.963       .  S
Zn970       O978   1.971       .  S
Zn970       O982   1.950       .  S
O972        C984   1.285       .  A
O973        C985   1.245       .  A
O974        C986   1.285       .  A
O975        C984   1.265       .  A
O976        C986   1.268       .  A
O977        C985   1.274       .  A
O978        C987   1.265       .  A
O979        C988   1.268       .  A
O980        C987   1.283       .  A
O981        C988   1.267       .  A
O982        C989   1.267       .  A
O983        C989   1.293       .  A
C984       C1007   1.500   1_554  S
C985       C1034   1.456       .  S
C986       C1079   1.473       .  S
C988       C1076   1.448       .  S
C989       C1032   1.469       .  S
Zn990       O994   1.950       .  S
Zn990       O995   1.922       .  S
Zn990       O999   2.058       .  S
Zn990      O1006   2.026       .  S
Zn991       O994   1.963       .  S
Zn991       O998   2.195       .  S
Zn991      O1002   2.155       .  S
Zn992       O994   1.862       .  S
Zn992       O997   1.961       .  S
Zn992      O1003   1.973       .  S
Zn993       O994   1.876       .  S
Zn993      O1001   2.044       .  S
Zn993      O1004   1.931       .  S
Zn993      O1005   2.030       .  S
O995       C1007   1.259       .  A
O996       C1008   1.281       .  A
O997       C1009   1.272       .  A
O998       C1007   1.296       .  A
O999       C1009   1.277       .  A
O1000      C1008   1.265       .  A
O1001      C1010   1.273       .  A
O1002      C1011   1.293       .  A
O1003      C1010   1.269       .  A
O1004      C1011   1.259       .  A
O1005      C1012   1.278       .  A
O1006      C1012   1.279       .  A
C1008      C1057   1.472       .  S
C1009      C1101   1.467       .  S
C1011      C1103   1.475       .  S
C1012      C1055   1.460       .  S
Zn1013     O1017   1.929       .  S
Zn1013     O1018   2.087       .  S
Zn1013     O1022   1.945       .  S
Zn1013     O1029   2.086       .  S
Zn1014     O1017   1.900       .  S
Zn1014     O1021   1.998       .  S
Zn1014     O1025   1.940   1_565  S
Zn1015     O1017   1.954       .  S
Zn1015     O1020   2.090       .  S
Zn1015     O1026   2.094       .  S
Zn1016     O1017   1.978       .  S
Zn1016     O1024   1.976       .  S
Zn1016     O1028   1.925       .  S
O1018      C1030   1.276       .  A
O1019      C1031   1.261       .  A
O1020      C1032   1.286       .  A
O1021      C1030   1.266       .  A
O1022      C1032   1.262       .  A
O1023      C1031   1.283       .  A
O1024      C1033   1.266       .  A
O1026      C1033   1.285       .  A
O1027      C1034   1.262       .  A
O1028      C1035   1.265       .  A
O1029      C1035   1.289       .  A
C1031      C1080   1.457       .  S
C1035      C1078   1.452       .  S
Zn1036     O1040   1.912       .  S
Zn1036     O1041   1.982       .  S
Zn1036     O1045   2.128       .  S
Zn1036     O1052   2.110       .  S
Zn1037     O1040   1.941       .  S
Zn1037     O1042   2.112       .  S
Zn1037     O1044   2.086       .  S
Zn1038     O1040   1.917       .  S
Zn1038     O1043   1.901       .  S
Zn1038     O1046   1.954       .  S
Zn1038     O1049   2.002       .  S
Zn1039     O1040   1.863       .  S
Zn1039     O1047   1.968       .  S
Zn1039     O1051   2.018       .  S
O1041      C1053   1.265       .  A
O1042      C1054   1.288       .  A
O1043      C1055   1.262       .  A
O1044      C1053   1.287       .  A
O1045      C1055   1.295       .  A
O1046      C1054   1.265       .  A
O1047      C1056   1.271       .  A
O1048      C1057   1.278       .  A
O1049      C1056   1.265       .  A
O1050      C1057   1.258       .  A
O1051      C1058   1.272       .  A
O1052      C1058   1.289       .  A
C1053      C1099   1.468       .  S
C1056      C1102   1.448       .  S
Zn1059     O1063   1.926       .  S
Zn1059     O1068   2.036       .  S
Zn1059     O1075   1.994   1_565  S
Zn1060     O1063   1.873       .  S
Zn1060     O1065   1.969       .  S
Zn1060     O1071   1.970       .  S
Zn1061     O1063   1.859       .  S
Zn1061     O1066   1.997       .  S
Zn1061     O1069   2.024       .  S
Zn1061     O1072   1.945       .  S
Zn1062     O1063   1.914       .  S
Zn1062     O1070   2.143       .  S
Zn1062     O1073   2.083       .  S
Zn1062     O1074   2.167       .  S
O1064      C1076   1.276       .  A
O1065      C1077   1.265       .  A
O1066      C1078   1.275       .  A
O1067      C1076   1.275       .  A
O1068      C1078   1.279       .  A
O1069      C1077   1.272       .  A
O1070      C1079   1.292       .  A
O1071      C1080   1.262       .  A
O1072      C1079   1.261       .  A
O1073      C1080   1.285       .  A
O1074      C1081   1.297       .  A
O1075      C1081   1.264   1_545  A
Zn1082     O1086   1.972       .  S
Zn1082     O1087   2.121       .  S
Zn1082     O1098   2.180       .  S
Zn1083     O1086   1.899       .  S
Zn1083     O1088   2.055       .  S
Zn1083     O1090   1.947       .  S
Zn1083     O1094   2.009       .  S
Zn1084     O1086   1.864       .  S
Zn1084     O1092   1.964       .  S
Zn1085     O1086   1.975       .  S
Zn1085     O1096   2.078       .  S
Zn1085     O1097   1.967       .  S
O1087      C1099   1.291       .  A
O1088      C1100   1.273       .  A
O1089      C1101   1.260       .  A
O1090      C1099   1.265       .  A
O1091      C1101   1.282       .  A
O1092      C1100   1.266       .  A
O1093      C1102   1.278       .  A
O1094      C1103   1.279       .  A
O1095      C1102   1.266       .  A
O1096      C1103   1.279       .  A
O1097      C1104   1.263       .  A
O1098      C1104   1.298       .  A
