geometry optimzed in LAMMPS
_audit_creation_date              2020-12-01 
_audit_creation_method            'lammps2cif' 
_symmetry_space_group_name_H-M    'P1' 
_symmetry_Int_Tables_number       1 
_symmetry_cell_setting            triclinic 
loop_ 
_symmetry_equiv_pos_as_xyz 
  x,y,z 
_cell_length_a                    27.28665684 
_cell_length_b                    27.205585675151433 
_cell_length_c                    45.50186036578613 
_cell_angle_alpha                 88.70040998064707 
_cell_angle_beta                  90.50920933939715 
_cell_angle_gamma                 90.54022708571851 
loop_ 
_atom_site_label 
_atom_site_type_symbol 
_atom_site_fract_x 
_atom_site_fract_y 
_atom_site_fract_z 
_atom_site_charge 
Fe1        Fe  0.44568448  0.78608490  0.06547883     1.65800
Fe2        Fe  0.52027354  0.69697299  0.08784812     1.73200
Fe3        Fe  0.56443316  0.79688089  0.05043135     1.54400
O4          O  0.51407956  0.82132096  0.51725727    -0.81900
O5          O  0.57937996  0.72166831  0.11207155    -0.80200
O6          O  0.44283029  0.78141265  0.52008761    -0.84400
O7          O  0.46839417  0.85713845  0.05935811    -0.79200
O8          O  0.58456050  0.73635891  0.02597276    -0.81000
O9          O  0.47556848  0.71824086  0.12208787    -0.83800
C10         C  0.50340285  0.88050664  0.07087308     0.97000
C11         C  0.47808780  0.79962722  0.50488977     1.04400
O12         O  0.51120639  0.75968117  0.06826287    -1.12700
O13         O  0.46362095  0.66522020  0.06392458    -0.75200
O14         O  0.40761289  0.72068228  0.07098666    -0.78700
O15         O  0.54534803  0.86026244  0.07397285    -0.79400
C16         C  0.41966271  0.67931205  0.06174315     0.95900
O17         O  0.44878985  0.79399050  0.11079956    -0.77300
O18         O  0.56578907  0.67241039  0.05554766    -0.82500
C19         C  0.61690977  0.74621542  0.10403282     0.98500
C20         C  0.58444491  0.69027726  0.03204039     1.04400
O21         O  0.61663731  0.77609734  0.08208880    -0.78200
C22         C  0.46260368  0.76117721  0.12965554     1.02700
Fe23       Fe  0.77837944  0.44965838  0.20316504     1.65800
Fe24       Fe  0.69017094  0.52656977  0.18231611     1.73200
Fe25       Fe  0.79194358  0.56898620  0.21767208     1.54400
O26         O  0.81390851  0.52396001  0.25283019    -0.81900
O27         O  0.71583248  0.58392803  0.15693262    -0.80200
O28         O  0.77279951  0.45332617  0.24888058    -0.84400
O29         O  0.85061545  0.47004368  0.20560065    -0.79200
O30         O  0.73222205  0.58958819  0.24302967    -0.81000
O31         O  0.70749341  0.48057710  0.14823482    -0.83800
C32         C  0.87545474  0.50673766  0.19670277     0.97000
C33         C  0.79135101  0.48741164  0.26461039     1.04400
O34         O  0.75355702  0.51603039  0.20065113    -1.12700
O35         O  0.65746122  0.47150733  0.20698582    -0.75200
O36         O  0.71168616  0.41360496  0.20108702    -0.78700
O37         O  0.85571618  0.54928311  0.19427449    -0.79400
C38         C  0.67007842  0.42711188  0.20935962     0.95900
O39         O  0.78245736  0.45159009  0.15749361    -0.77300
O40         O  0.66753154  0.57305362  0.21442535    -0.82500
C41         C  0.74134604  0.62124521  0.16358851     0.98500
C42         C  0.68611070  0.58980008  0.23787618     1.04400
O43         O  0.77117102  0.62146595  0.18536306    -0.78200
C44         C  0.74878717  0.46541581  0.13941310     1.02700
Fe45       Fe  0.44135691  0.18806043  0.32526040     1.65800
Fe46       Fe  0.51495345  0.27893501  0.34433002     1.73200
Fe47       Fe  0.55964490  0.18069956  0.30844745     1.54400
O48         O  0.54207601  0.11437066  0.33144953    -0.81900
O49         O  0.55838708  0.30549817  0.31106041    -0.80200
O50         O  0.46360095  0.11776253  0.31983213    -0.84400
O51         O  0.44314886  0.19945995  0.27947109    -0.79200
O52         O  0.61217388  0.20141056  0.34026659    -0.81000
O53         O  0.45711613  0.30894392  0.32048493    -0.83800
C54         C  0.47678092  0.18255865  0.26300435     0.97000
C55         C  0.50028453  0.09327373  0.32822596     1.04400
O56         O  0.50663115  0.21575115  0.32656705    -1.12700
O57         O  0.47120860  0.25626901  0.37927813    -0.75200
O58         O  0.44694051  0.17918659  0.37091277    -0.78700
O59         O  0.51403512  0.16023565  0.27370917    -0.79400
C60         C  0.46041211  0.21297030  0.38859839     0.95900
O61         O  0.40289330  0.25189971  0.33058593    -0.77300
O62         O  0.57538784  0.25638968  0.36831479    -0.82500
C63         C  0.57551988  0.28844956  0.28761745     0.98500
C64         C  0.61253887  0.23141665  0.36150720     1.04400
O65         O  0.57787933  0.24248024  0.28313253    -0.78200
C66         C  0.41326999  0.29360424  0.31985998     1.02700
Fe67       Fe  0.77591889  0.52999789  0.45271259     1.65800
Fe68       Fe  0.68981121  0.45067348  0.43279613     1.73200
Fe69       Fe  0.78896066  0.41156147  0.47131710     1.54400
O70         O  0.85194161  0.43220841  0.44701926    -0.81900
O71         O  0.66664739  0.40285692  0.46567131    -0.80200
O72         O  0.84747158  0.51020655  0.45866409    -0.84400
O73         O  0.77227149  0.51781244  0.99815302    -0.79200
O74         O  0.76815878  0.35701616  0.44121263    -0.81000
O75         O  0.65641562  0.50451966  0.45683456    -0.83800
C76         C  0.79046631  0.48401586  0.01486056     0.97000
C77         C  0.87167745  0.47497579  0.44893063     1.04400
O78         O  0.75154790  0.46300235  0.45195587    -1.12700
O79         O  0.70944886  0.49761482  0.39783905    -0.75200
O80         O  0.78464840  0.52603116  0.40759038    -0.78700
O81         O  0.81377538  0.44787157  0.00457771    -0.79400
C82         C  0.75237756  0.51054872  0.38939736     0.95900
O83         O  0.70879971  0.56387613  0.44720660    -0.77300
O84         O  0.71741294  0.39394374  0.40910781    -0.82500
C85         C  0.68367441  0.38751280  0.49031375     0.98500
C86         C  0.73995658  0.35618668  0.41863947     1.04400
O87         O  0.73019304  0.38302517  0.99634358    -0.78200
C88         C  0.66932228  0.54904259  0.45875165     1.02700
Fe89       Fe  0.51355698  0.18423609  0.07373764     1.65800
Fe90       Fe  0.43773888  0.27233040  0.09145370     1.73200
Fe91       Fe  0.39435813  0.17118484  0.05740649     1.54400
O92         O  0.44049537  0.15056263  0.52672949    -0.81900
O93         O  0.38146198  0.24631146  0.11714352    -0.80200
O94         O  0.51139141  0.19161154  0.53000651    -0.84400
O95         O  0.49302729  0.11220816  0.07098663    -0.79200
O96         O  0.37343934  0.23074434  0.03042795    -0.81000
O97         O  0.48520094  0.25447615  0.12611550    -0.83800
C98         C  0.45627056  0.08730274  0.07934153     0.97000
C99         C  0.47671389  0.17261845  0.51466499     1.04400
O100        O  0.44739556  0.20901449  0.07463847    -1.12700
O101        O  0.49186663  0.30412400  0.06545865    -0.75200
O102        O  0.54941523  0.25127071  0.07656345    -0.78700
O103        O  0.41425576  0.10740760  0.08200254    -0.79400
C104        C  0.53610267  0.29104839  0.06438663     0.95900
O105        O  0.51040274  0.17801381  0.11933057    -0.77300
O106        O  0.38953701  0.29457153  0.05887423    -0.82500
C107        C  0.34337683  0.22230708  0.10980250     0.98500
C108        C  0.37192848  0.27664887  0.03542525     1.04400
O109        O  0.34241814  0.19277065  0.08836760    -0.78200
C110        C  0.49659990  0.21191784  0.13636042     1.02700
Fe111      Fe  0.18044702  0.52257750  0.19895027     1.65800
Fe112      Fe  0.27117188  0.44794459  0.18212282     1.73200
Fe113      Fe  0.16933823  0.40323826  0.21654750     1.54400
O114        O  0.14530040  0.44835463  0.24933460    -0.81900
O115        O  0.24857668  0.38823844  0.15827626    -0.80200
O116        O  0.18627196  0.51900838  0.24497170    -0.84400
O117        O  0.10877457  0.50029683  0.20123634    -0.79200
O118        O  0.22886663  0.38464708  0.24363540    -0.81000
O119        O  0.25273223  0.49276241  0.14632176    -0.83800
C120        C  0.08463210  0.46287175  0.19350418     0.97000
C121        C  0.16802442  0.48410653  0.26098483     1.04400
O122        O  0.20691812  0.45681561  0.19866414    -1.12700
O123        O  0.30107448  0.50491472  0.20579863    -0.75200
O124        O  0.24585924  0.56115663  0.19639070    -0.78700
O125        O  0.10549039  0.42099408  0.19177662    -0.79400
C126        C  0.28707619  0.54897584  0.20667519     0.95900
O127        O  0.17663003  0.51909142  0.15331116    -0.77300
O128        O  0.29437240  0.40324613  0.21633887    -0.82500
C129        C  0.22279659  0.35088742  0.16556553     0.98500
C130        C  0.27516649  0.38614061  0.23976469     1.04400
O131        O  0.19184516  0.35104411  0.18640197    -0.78200
C132        C  0.21063233  0.50475105  0.13631047     1.02700
Fe133      Fe  0.17320814  0.44489079  0.45036947     1.65800
Fe134      Fe  0.26541382  0.51830434  0.42992989     1.73200
Fe135      Fe  0.16709938  0.56491796  0.46414399     1.54400
O136        O  0.10374110  0.54870437  0.43921565    -0.81900
O137        O  0.28985015  0.56524461  0.46163600    -0.80200
O138        O  0.10283156  0.46953600  0.45170260    -0.84400
O139        O  0.18745608  0.45139234  0.99586266    -0.79200
O140        O  0.19278535  0.61682542  0.43290022    -0.81000
O141        O  0.29417163  0.46282510  0.45657921    -0.83800
C142        C  0.16955943  0.48519513  0.01165044     0.97000
C143        C  0.08121311  0.50731529  0.44179770     1.04400
O144        O  0.20178042  0.51031535  0.44754114    -1.12700
O145        O  0.24546608  0.47194727  0.39608441    -0.75200
O146        O  0.16879799  0.44604954  0.40469068    -0.78700
O147        O  0.14771619  0.52234453  0.00029848    -0.79400
C148        C  0.20279875  0.45958079  0.38700372     0.95900
O149        O  0.23791735  0.40606826  0.44967057    -0.77300
O150        O  0.24307550  0.57662612  0.40361284    -0.82500
C151        C  0.27292025  0.58175054  0.48529679     0.98500
C152        C  0.22202890  0.61572094  0.41120120     1.04400
O153        O  0.23072017  0.58811185  0.99016360    -0.78200
C154        C  0.27852632  0.41929908  0.46046033     1.02700
Fe155      Fe  0.51971180  0.79236869  0.31662934     1.65800
Fe156      Fe  0.44676941  0.70017263  0.33779412     1.73200
Fe157      Fe  0.40099515  0.79766788  0.29942972     1.54400
O158        O  0.41731918  0.86152340  0.32345536    -0.81900
O159        O  0.40159127  0.67435381  0.30519018    -0.80200
O160        O  0.49541949  0.86275586  0.31115889    -0.84400
O161        O  0.51710826  0.78355413  0.27114692    -0.79200
O162        O  0.34837268  0.77343403  0.33001658    -0.81000
O163        O  0.50390622  0.67045964  0.31455363    -0.83800
C164        C  0.48259413  0.80044159  0.25463520     0.97000
C165        C  0.45862429  0.88405000  0.32136777     1.04400
O166        O  0.45482645  0.76320737  0.31833328    -1.12700
O167        O  0.49126911  0.72225419  0.37234707    -0.75200
O168        O  0.51591430  0.79934417  0.36191485    -0.78700
O169        O  0.44632456  0.82253025  0.26563643    -0.79400
C170        C  0.50247563  0.76566130  0.38030032     0.95900
O171        O  0.55858983  0.72823017  0.32201937    -0.77300
O172        O  0.38754145  0.72302421  0.36144377    -0.82500
C173        C  0.38468560  0.69068178  0.28082367     0.98500
C174        C  0.34894923  0.74443786  0.35244363     1.04400
O175        O  0.38426645  0.73655677  0.27418230    -0.78200
C176        C  0.54759526  0.68622516  0.31282842     1.02700
C177        C  0.23814472  0.66219271  0.39628933    -0.00400
C178        C  0.23824280  0.66527596  0.36547329    -0.12200
C179        C  0.26864442  0.69938170  0.35058507     0.01900
C180        C  0.30241717  0.72843237  0.36653871    -0.00500
C181        C  0.29875506  0.72884831  0.39727395    -0.12200
C182        C  0.26563174  0.69735580  0.41211264     0.01800
H183        H  0.21690773  0.63895595  0.35303269     0.14700
H184        H  0.32409173  0.75130125  0.40980124     0.14700
C185        C  0.26390911  0.69870585  0.44378063     0.36400
C186        C  0.26785175  0.70054851  0.31885945     0.36300
N187        N  0.26187245  0.70039612  0.46912645    -0.44000
N188        N  0.26664292  0.70217608  0.29343316    -0.44000
C189        C  0.36424209  0.65418413  0.25983342    -0.00400
C190        C  0.33750616  0.67067418  0.23497622    -0.12200
C191        C  0.31413231  0.63730126  0.21622472     0.01900
C192        C  0.31753082  0.58610535  0.22204385    -0.00500
C193        C  0.34645089  0.56971840  0.24578100    -0.12200
C194        C  0.36976887  0.60265053  0.26448662     0.01800
H195        H  0.33358549  0.70976579  0.23055744     0.14700
H196        H  0.34859185  0.53078008  0.25091532     0.14700
C197        C  0.39799208  0.58144098  0.28855939     0.36400
C198        C  0.28674540  0.65678497  0.19135981     0.36300
N199        N  0.42034162  0.56409311  0.30781852    -0.44000
N200        N  0.26485044  0.67264047  0.17147216    -0.44000
C201        C  0.17367810  0.48204098  0.29381069    -0.00400
C202        C  0.15153268  0.44227741  0.30950335    -0.12200
C203        C  0.16072145  0.43351025  0.33953938     0.01900
C204        C  0.19260698  0.46493224  0.35490573    -0.00500
C205        C  0.21389885  0.50523681  0.33957805    -0.06600
C206        C  0.20468902  0.51416470  0.30954509     0.01800
H207        H  0.12779736  0.41662733  0.29813964     0.14700
H208        H  0.23778303  0.53041300  0.35121378     0.14700
C209        C  0.22816911  0.55623785  0.29566665     0.36400
C210        C  0.13933848  0.39029315  0.35345755     0.36300
N211        N  0.24690678  0.59014727  0.28466268    -0.44000
N212        N  0.12243302  0.35525843  0.36429979    -0.44000
C213        C  0.20082312  0.49972048  0.10406839    -0.00400
C214        C  0.15438504  0.51231849  0.09270760    -0.12200
C215        C  0.14213899  0.50504122  0.06311257     0.01900
C216        C  0.17652019  0.48427058  0.04400661    -0.00500
C217        C  0.22214546  0.47009927  0.05536734    -0.12200
C218        C  0.23483577  0.47781743  0.08480114     0.01800
H219        H  0.12722453  0.52783538  0.10697502     0.14700
H220        H  0.24897392  0.45473271  0.04081369     0.14700
C221        C  0.28335019  0.46276645  0.09399492     0.36400
C222        C  0.09366034  0.51864728  0.05305504     0.36300
N223        N  0.32234128  0.45055051  0.10099735    -0.44000
N224        N  0.05479461  0.52955910  0.04505411    -0.44000
C225        C  0.30657081  0.38367421  0.47906505    -0.00400
C226        C  0.30466465  0.33327652  0.47282744    -0.12200
C227        C  0.32399826  0.29872232  0.98786651     0.01900
C228        C  0.35019460  0.31235191  0.01350154    -0.00500
C229        C  0.35643153  0.36289676  0.01882201    -0.12200
C230        C  0.33061496  0.39850397  0.50501214     0.01800
H231        H  0.28542150  0.32128387  0.45326378     0.14700
H232        H  0.37642374  0.37478680  0.03813911     0.14700
C233        C  0.32941094  0.44854970  0.51479630     0.36400
C234        C  0.31527368  0.24798180  0.98064486     0.36300
N235        N  0.32796357  0.48813802  0.52344787    -0.44000
N236        N  0.30785938  0.20746405  0.97462027    -0.44000
C237        C  0.29753301  0.23617965  0.12451231    -0.00400
C238        C  0.26390506  0.26413132  0.10768052    -0.12200
C239        C  0.23360247  0.29852399  0.12101949     0.01900
C240        C  0.23559633  0.30402713  0.15172604    -0.00500
C241        C  0.26374485  0.27086309  0.16877163    -0.12200
C242        C  0.29511906  0.23757645  0.15542094     0.01800
H243        H  0.26554356  0.26356553  0.08387249     0.14700
H244        H  0.26560009  0.27483643  0.19243339     0.14700
C245        C  0.32783164  0.20851759  0.17372442     0.36400
C246        C  0.20339140  0.33018920  0.10272137     0.36300
N247        N  0.35392171  0.18516748  0.18844003    -0.44000
N248        N  0.17885502  0.35527748  0.08805584    -0.44000
C249        C  0.92446778  0.48540077  0.44176798    -0.00400
C250        C  0.95522951  0.44678468  0.43442095    -0.12200
C251        C  0.00593221  0.45424116  0.43145707     0.01900
C252        C  0.02746959  0.50134830  0.43626813    -0.00500
C253        C  0.99640757  0.54084235  0.44085091    -0.12200
C254        C  0.94564126  0.53363967  0.44352178     0.01800
H255        H  0.93998153  0.41012777  0.43198325     0.14700
H256        H  0.01206202  0.57712234  0.44418448     0.14700
C257        C  0.91719566  0.57693336  0.44912951     0.36400
C258        C  0.03496289  0.41206328  0.42434556     0.36300
N259        N  0.89479745  0.61181426  0.45371879    -0.44000
N260        N  0.05799854  0.37801849  0.41888567    -0.44000
C261        C  0.64749658  0.36135123  0.01098737    -0.00400
C262        C  0.59801866  0.36399454  0.50309267    -0.12200
C263        C  0.56074072  0.34243412  0.02006493     0.01900
C264        C  0.57274510  0.32047768  0.04750371    -0.00500
C265        C  0.62193846  0.32143217  0.05706583    -0.12200
C266        C  0.65905191  0.34257911  0.03948991     0.01800
H267        H  0.58665423  0.37843668  0.48171973     0.14700
H268        H  0.63147581  0.30527402  0.07834483     0.14700
C269        C  0.70811437  0.34474952  0.05156055     0.36400
C270        C  0.51220581  0.34221556  0.51040386     0.36300
N271        N  0.74727705  0.34684493  0.06146667    -0.44000
N272        N  0.47240342  0.34123223  0.50143054    -0.44000
C273        C  0.49091215  0.03897893  0.33218868    -0.00400
C274        C  0.44159093  0.02202654  0.33024362    -0.12200
C275        C  0.42939579  0.97196892  0.32839629     0.01900
C276        C  0.46674358  0.93678014  0.32900918    -0.00500
C277        C  0.51561293  0.95326028  0.33372153    -0.12200
C278        C  0.52792996  0.00348709  0.33511908     0.01800
H279        H  0.41186608  0.04815314  0.32883490     0.14700
H280        H  0.54500868  0.92673664  0.33513835     0.14700
C281        C  0.57887477  0.01716635  0.33835985     0.36400
C282        C  0.37862695  0.95841414  0.32398762     0.36300
N283        N  0.61979722  0.02787493  0.34101852    -0.44000
N284        N  0.33787556  0.94777743  0.32041688    -0.44000
C285        C  0.30875101  0.36727796  0.26329079    -0.00400
C286        C  0.29239788  0.32995812  0.28270411    -0.12200
C287        C  0.32459149  0.30742555  0.30298857     0.01900
C288        C  0.37441831  0.32287379  0.30448118    -0.00500
C289        C  0.38899924  0.36381990  0.28737267    -0.12200
C290        C  0.35752118  0.38514210  0.26644428     0.01800
H291        H  0.25486739  0.31672061  0.28116273     0.14700
H292        H  0.42644760  0.37732514  0.28879706     0.14700
C293        C  0.37780514  0.42386114  0.24788436     0.36400
C294        C  0.30519613  0.26809979  0.32143046     0.36300
N295        N  0.39547718  0.45403458  0.23298710    -0.44000
N296        N  0.28924514  0.23668390  0.33613091    -0.44000
C297        C  0.72579078  0.30886882  0.40508393    -0.00400
C298        C  0.69550808  0.27686183  0.42168148    -0.12200
C299        C  0.66222601  0.24486506  0.40781819     0.01900
C300        C  0.65917488  0.24418584  0.37685411    -0.00500
C301        C  0.69460779  0.27067326  0.36054070    -0.12200
C302        C  0.72760136  0.30298803  0.37440664     0.01800
H303        H  0.69392308  0.28063844  0.44534047     0.14700
H304        H  0.69308643  0.27028435  0.33671542     0.14700
C305        C  0.76113527  0.33197222  0.35667799     0.36400
C306        C  0.62967335  0.21499677  0.42569846     0.36300
N307        N  0.78865626  0.35466186  0.34257280    -0.44000
N308        N  0.60421873  0.19045417  0.44012507    -0.44000
C309        C  0.49188421  0.20268317  0.16889032    -0.00400
C310        C  0.48063508  0.24265634  0.18676766    -0.12200
C311        C  0.47256000  0.23646502  0.21703033     0.01900
C312        C  0.47509194  0.18932825  0.23045553    -0.00500
C313        C  0.48585120  0.14918121  0.21277572    -0.12200
C314        C  0.49370915  0.15518697  0.18237248     0.01800
H315        H  0.47874335  0.27947460  0.17721537     0.14700
H316        H  0.48892408  0.11286070  0.22292631     0.14700
C317        C  0.50310287  0.11164385  0.16586607     0.36400
C318        C  0.46593799  0.27993130  0.23399579     0.36300
N319        N  0.51052193  0.07646306  0.15285422    -0.44000
N320        N  0.46154030  0.31551586  0.24707507    -0.44000
C321        C  0.46493639  0.20236999  0.42094908    -0.00400
C322        C  0.44321477  0.15969220  0.43318227    -0.12200
C323        C  0.44769117  0.14808510  0.46334266     0.01900
C324        C  0.47610505  0.17858815  0.48200047    -0.00500
C325        C  0.49903023  0.22024807  0.46961704    -0.12200
C326        C  0.49315891  0.23292376  0.43982777     0.01800
H327        H  0.42176079  0.13566465  0.41926284     0.14700
H328        H  0.52025308  0.24442631  0.48357540     0.14700
C329        C  0.51703197  0.27782638  0.42981358     0.36400
C330        C  0.42197002  0.10495452  0.47439645     0.36300
N331        N  0.53620036  0.31401886  0.42224430    -0.44000
N332        N  0.40083915  0.07068759  0.48321852    -0.44000
C333        C  0.92880354  0.49654973  0.19072670    -0.00400
C334        C  0.94479144  0.44694594  0.19229501    -0.12200
C335        C  0.99464651  0.43422256  0.19115730     0.01900
C336        C  0.03068365  0.47132531  0.18840912    -0.00500
C337        C  0.01450960  0.52046956  0.18430222    -0.12200
C338        C  0.96463099  0.53322016  0.18536823     0.01800
H339        H  0.91828841  0.41739775  0.19536621     0.14700
H340        H  0.04125230  0.54980949  0.18117483     0.14700
C341        C  0.95184271  0.58430939  0.18154764     0.36400
C342        C  0.00753504  0.38300838  0.19411942     0.36300
N343        N  0.94189387  0.62533793  0.17826464    -0.44000
N344        N  0.01767598  0.34187076  0.19633891    -0.44000
C345        C  0.63758438  0.39082115  0.22432252    -0.00400
C346        C  0.60636822  0.40772205  0.24607132    -0.12200
C347        C  0.58398252  0.37520634  0.26602911     0.01900
C348        C  0.59334415  0.32401983  0.26474109    -0.00500
C349        C  0.62055974  0.30679835  0.24103828    -0.12200
C350        C  0.64233112  0.33961941  0.22079792     0.01800
H351        H  0.60231698  0.44676107  0.24905322     0.14700
H352        H  0.62621000  0.26769345  0.23872558     0.14700
C353        C  0.66960949  0.31976469  0.19681316     0.36400
C354        C  0.55301111  0.39641075  0.28793846     0.36300
N355        N  0.69128111  0.30393349  0.17749136    -0.44000
N356        N  0.52836444  0.41374618  0.30541833    -0.44000
C357        C  0.76470680  0.50467633  0.35768240    -0.00400
C358        C  0.73756326  0.47007363  0.34148890    -0.12200
C359        C  0.74794266  0.46078050  0.31199990     0.01900
C360        C  0.78547440  0.48746354  0.29735535    -0.00500
C361        C  0.81401151  0.52064950  0.31391119    -0.12200
C362        C  0.80451083  0.52892698  0.34370761     0.01800
H363        H  0.70831791  0.44921134  0.35206592     0.14700
H364        H  0.84356684  0.54113994  0.30340598     0.14700
C365        C  0.83567020  0.56329971  0.35900315     0.36400
C366        C  0.71946930  0.42324577  0.29768588     0.36300
N367        N  0.86087755  0.59064973  0.37125340    -0.44000
N368        N  0.69723890  0.39218797  0.28668657    -0.44000
C369        C  0.75842596  0.46719262  0.10708206    -0.00400
C370        C  0.80731779  0.46629979  0.09743179    -0.12200
C371        C  0.81900433  0.47440324  0.06771920     0.01900
C372        C  0.78150267  0.48358608  0.04684401    -0.00500
C373        C  0.73284349  0.48460311  0.05621383    -0.12200
C374        C  0.72087839  0.47646560  0.08580503     0.01800
H375        H  0.83683518  0.46074321  0.11323148     0.14700
H376        H  0.70376416  0.49027569  0.04010554     0.14700
C377        C  0.66952012  0.47768560  0.09317028     0.36400
C378        C  0.86993598  0.47540885  0.05938807     0.36300
N379        N  0.62825404  0.47904390  0.09873453    -0.44000
N380        N  0.91082800  0.47673346  0.05285550    -0.44000
C381        C  0.65191336  0.61024182  0.25980233    -0.00400
C382        C  0.66847059  0.64714038  0.27862953    -0.12200
C383        C  0.63611391  0.67068019  0.29746471     0.01900
C384        C  0.58579008  0.65674066  0.29814232    -0.00500
C385        C  0.57030698  0.61721872  0.28102280    -0.12200
C386        C  0.60223273  0.59451651  0.26178372     0.01800
H387        H  0.70643862  0.65920533  0.27775187     0.14700
H388        H  0.53214566  0.60565259  0.28128463     0.14700
C389        C  0.58162684  0.55647205  0.24369229     0.36400
C390        C  0.65572755  0.70988949  0.31506489     0.36300
N391        N  0.56380335  0.52686578  0.22907856    -0.44000
N392        N  0.67154228  0.74143022  0.32903850    -0.44000
C393        C  0.49229298  0.93260294  0.07870310    -0.00400
C394        C  0.44268800  0.94778497  0.07701565    -0.12200
C395        C  0.42917845  0.99721633  0.07911068     0.01900
C396        C  0.46535525  0.03335756  0.08378167    -0.00500
C397        C  0.51439917  0.01768297  0.08821541    -0.12200
C398        C  0.52807739  0.96822082  0.08558974     0.01800
H399        H  0.41388915  0.92115796  0.07261727     0.14700
H400        H  0.54295509  0.04469527  0.09238705     0.14700
C401        C  0.57919571  0.95578756  0.08870451     0.36400
C402        C  0.37853824  0.00989994  0.07396948     0.36300
N403        N  0.61953029  0.94364199  0.58345196    -0.44000
N404        N  0.33794887  0.01996155  0.06967598    -0.44000
C405        C  0.38263272  0.64953716  0.04567112    -0.00400
C406        C  0.39844192  0.62439402  0.02110112    -0.12200
C407        C  0.35999132  0.59717699  0.50404027     0.01900
C408        C  0.31364443  0.60756753  0.00581679    -0.00500
C409        C  0.29795701  0.63024600  0.03157158    -0.12200
C410        C  0.33170290  0.65180751  0.05112131     0.01800
H411        H  0.43111062  0.61715140  0.52039166     0.14700
H412        H  0.25910128  0.63238143  0.03614467     0.14700
C413        C  0.31306640  0.67636581  0.07645823     0.36400
C414        C  0.38212679  0.56961368  0.48090330     0.36300
N415        N  0.29818357  0.69624296  0.09670803    -0.44000
N416        N  0.40010974  0.54771832  0.46240276    -0.44000
C417        C  0.60599920  0.65458072  0.01130027    -0.00400
C418        C  0.59696176  0.60404767  0.01655006    -0.12200
C419        C  0.61742610  0.56805158  0.99910140     0.01900
C420        C  0.63976755  0.58402010  0.47579626    -0.00500
C421        C  0.64130054  0.63436321  0.46817465    -0.12200
C422        C  0.61954097  0.66956935  0.48590244     0.01800
H423        H  0.57404616  0.59209530  0.03475697     0.14700
H424        H  0.66026620  0.64641789  0.44840190     0.14700
C425        C  0.62250846  0.72035862  0.47617381     0.36400
C426        C  0.60763564  0.51727597  0.00716402     0.36300
N427        N  0.62499329  0.76101563  0.46825158    -0.44000
N428        N  0.59935461  0.47683401  0.01396074    -0.44000
C429        C  0.72955604  0.66717116  0.14706336    -0.00400
C430        C  0.70614203  0.70435791  0.16258558    -0.12200
C431        C  0.67275903  0.73611729  0.14827331     0.01900
C432        C  0.66404672  0.73202041  0.11787942    -0.00500
C433        C  0.69320619  0.70015768  0.10180083    -0.12200
C434        C  0.72501082  0.66714518  0.11614436     0.01800
H435        H  0.70905749  0.70462208  0.18637791     0.14700
H436        H  0.68653340  0.69658874  0.07838551     0.14700
C437        C  0.74794031  0.62971362  0.09909121     0.36400
C438        C  0.64543681  0.77034520  0.16532270     0.36300
N439        N  0.76597329  0.59957598  0.08539154    -0.44000
N440        N  0.62389623  0.79829300  0.17885699    -0.44000
C441        C  0.47971836  0.79502951  0.47221555    -0.00400
C442        C  0.51844374  0.81854685  0.45675670    -0.12200
C443        C  0.52682246  0.80986333  0.42696140     0.01900
C444        C  0.49635114  0.77680379  0.41183817    -0.00500
C445        C  0.45662734  0.75469696  0.42682155    -0.12200
C446        C  0.44779182  0.76372419  0.45648825     0.01800
H447        H  0.54347353  0.84292255  0.46813502     0.14700
H448        H  0.43195449  0.73023682  0.41522230     0.14700
C449        C  0.40608151  0.73964724  0.47001736     0.36400
C450        C  0.56841622  0.83332302  0.41292596     0.36300
N451        N  0.37248396  0.72053469  0.48078518    -0.44000
N452        N  0.60183285  0.85196503  0.40165971    -0.44000
C453        C  0.48199682  0.79379168  0.22202537    -0.00400
C454        C  0.44549496  0.81802647  0.20502222    -0.12200
C455        C  0.43799542  0.80816467  0.17515011     0.01900
C456        C  0.46703995  0.77295062  0.16142506    -0.00500
C457        C  0.50431309  0.74970486  0.17809340    -0.12200
C458        C  0.51226836  0.75992644  0.20784184     0.01800
H459        H  0.42168833  0.84426534  0.21519982     0.14700
H460        H  0.52807642  0.72362424  0.16771234     0.14700
C461        C  0.55172549  0.73467431  0.22292409     0.36400
C462        C  0.39894249  0.83330928  0.15957004     0.36300
N463        N  0.58397720  0.71463172  0.23452030    -0.44000
N464        N  0.36757646  0.85350143  0.14715840    -0.44000
Fe465      Fe  0.43712074  0.78890441  0.56530634     1.65800
Fe466      Fe  0.50968565  0.69794354  0.58913027     1.73200
Fe467      Fe  0.55697276  0.79669320  0.55248917     1.54400
O468        O  0.51959405  0.81845577  0.01531927    -0.81900
O469        O  0.56827463  0.72132087  0.61426376    -0.80200
O470        O  0.44929441  0.77691979  0.02012725    -0.84400
O471        O  0.46189318  0.86006192  0.56154766    -0.79200
O472        O  0.57554404  0.73629456  0.52772855    -0.81000
O473        O  0.46379248  0.72031026  0.62256233    -0.83800
C474        C  0.49798683  0.88132980  0.57351000     0.97000
C475        C  0.48323735  0.79569252  0.00396303     1.04400
O476        O  0.50205266  0.76074798  0.56927254    -1.12700
O477        O  0.45368416  0.66672226  0.56513051    -0.75200
O478        O  0.39765043  0.72379202  0.56839699    -0.78700
O479        O  0.53903071  0.85935028  0.57652693    -0.79400
C480        C  0.41017123  0.68115112  0.56141139     0.95900
O481        O  0.43709994  0.79559873  0.61045856    -0.77300
O482        O  0.55577105  0.67230743  0.55704570    -0.82500
C483        C  0.60674919  0.74467214  0.60668677     0.98500
C484        C  0.57469799  0.69015502  0.53354047     1.04400
O485        O  0.60799259  0.77375969  0.58440391    -0.78200
C486        C  0.45032797  0.76336205  0.62968459     1.02700
Fe487      Fe  0.77475570  0.44876072  0.70171619     1.65800
Fe488      Fe  0.68327885  0.52470030  0.68693872     1.73200
Fe489      Fe  0.79027617  0.56710992  0.71644320     1.54400
O490        O  0.81048435  0.52099823  0.75191820    -0.81900
O491        O  0.70128815  0.58827407  0.66443825    -0.80200
O492        O  0.76962936  0.44960970  0.74749917    -0.84400
O493        O  0.84702679  0.46779103  0.70538725    -0.79200
O494        O  0.73408417  0.59282952  0.74252976    -0.81000
O495        O  0.70132697  0.48636535  0.64922182    -0.83800
C496        C  0.87075792  0.50312180  0.69407006     0.97000
C497        C  0.78833547  0.48359302  0.76340148     1.04400
O498        O  0.74907799  0.51483142  0.70144440    -1.12700
O499        O  0.65514833  0.46421545  0.70958551    -0.75200
O500        O  0.70982950  0.41103574  0.69736804    -0.78700
O501        O  0.85095668  0.54528625  0.69137794    -0.79400
C502        C  0.66937517  0.42035992  0.70863921     0.95900
O503        O  0.77708722  0.45639548  0.65638361    -0.77300
O504        O  0.66394905  0.56401087  0.72310839    -0.82500
C505        C  0.73328926  0.62205949  0.66667859     0.98500
C506        C  0.68753252  0.58806624  0.74235757     1.04400
O507        O  0.77059646  0.61883616  0.68367997    -0.78200
C508        C  0.74286374  0.47280556  0.63936292     1.02700
Fe509      Fe  0.43627659  0.18475251  0.82479570     1.65800
Fe510      Fe  0.50873823  0.27873188  0.84019083     1.73200
Fe511      Fe  0.55465038  0.17498002  0.81023976     1.54400
O512        O  0.53537983  0.11234296  0.83626414    -0.81900
O513        O  0.54915581  0.30132450  0.80461225    -0.80200
O514        O  0.45845555  0.11407346  0.82167608    -0.84400
O515        O  0.43990929  0.19254149  0.77891867    -0.79200
O516        O  0.60579665  0.19757404  0.84166111    -0.81000
O517        O  0.44872221  0.30576134  0.81674493    -0.83800
C518        C  0.47504473  0.17497233  0.76384415     0.97000
C519        C  0.49375623  0.09107167  0.83317335     1.04400
O520        O  0.50125848  0.21305954  0.82569850    -1.12700
O521        O  0.46792917  0.25819380  0.87694103    -0.75200
O522        O  0.44118384  0.18084100  0.87031037    -0.78700
O523        O  0.50974427  0.15102322  0.77624101    -0.79400
C524        C  0.45514147  0.21579338  0.88708977     0.95900
O525        O  0.39674768  0.24772016  0.82859733    -0.77300
O526        O  0.57148815  0.26123259  0.86372284    -0.82500
C527        C  0.57020405  0.28018429  0.78363802     0.98500
C528        C  0.60698196  0.23216061  0.86005973     1.04400
O529        O  0.57548174  0.23365057  0.78271061    -0.78200
C530        C  0.40536840  0.28919903  0.81726939     1.02700
Fe531      Fe  0.78221093  0.52117415  0.95290353     1.65800
Fe532      Fe  0.69284620  0.44633640  0.93291504     1.73200
Fe533      Fe  0.79098564  0.40214791  0.97072092     1.54400
O534        O  0.85468844  0.42110599  0.94615351    -0.81900
O535        O  0.66810496  0.39890269  0.96544886    -0.80200
O536        O  0.85253329  0.49839873  0.95924923    -0.84400
O537        O  0.76622901  0.52748116  0.49790786    -0.79200
O538        O  0.76787653  0.34948609  0.94023889    -0.81000
O539        O  0.66198651  0.50112195  0.95732944    -0.83800
C540        C  0.78549985  0.49477959  0.51490337     0.97000
C541        C  0.87527403  0.46351283  0.94808957     1.04400
O542        O  0.75522995  0.45540856  0.95189420    -1.12700
O543        O  0.71375851  0.49324778  0.89828410    -0.75200
O544        O  0.79058214  0.51729427  0.90747195    -0.78700
O545        O  0.80960387  0.45893845  0.50484234    -0.79400
C546        C  0.75698689  0.50396542  0.88941749     0.95900
O547        O  0.71674578  0.55802229  0.94744403    -0.77300
O548        O  0.71801472  0.38924488  0.90878393    -0.82500
C549        C  0.68454250  0.38209570  0.98988569     0.98500
C550        C  0.73938779  0.35050754  0.91781837     1.04400
O551        O  0.72908705  0.39083636  0.49687744    -0.78200
C552        C  0.67664688  0.54514044  0.95899272     1.02700
Fe553      Fe  0.51722969  0.18539849  0.57564665     1.65800
Fe554      Fe  0.44233168  0.27428637  0.59470934     1.73200
Fe555      Fe  0.39732802  0.17316243  0.56120796     1.54400
O556        O  0.43966497  0.14914907  0.02408321    -0.81900
O557        O  0.38609977  0.24903672  0.62098341    -0.80200
O558        O  0.50935086  0.19193922  0.02799253    -0.84400
O559        O  0.49564643  0.11349722  0.57400477    -0.79200
O560        O  0.37591736  0.23252641  0.53470494    -0.81000
O561        O  0.49083673  0.25604017  0.62882461    -0.83800
C562        C  0.45890754  0.08908624  0.58294019     0.97000
C563        C  0.47493727  0.17308763  0.01235297     1.04400
O564        O  0.45129710  0.21086433  0.57759345    -1.12700
O565        O  0.49590343  0.30598918  0.56843135    -0.75200
O566        O  0.55387756  0.25218420  0.57712907    -0.78700
O567        O  0.41727362  0.10966979  0.58581868    -0.79400
C568        C  0.53988622  0.29265085  0.56612818     0.95900
O569        O  0.51680798  0.18003077  0.62113703    -0.77300
O570        O  0.39341897  0.29689331  0.56246521    -0.82500
C571        C  0.34780394  0.22502343  0.61395696     0.98500
C572        C  0.37451664  0.27843894  0.53949328     1.04400
O573        O  0.34661292  0.19515222  0.59271901    -0.78200
C574        C  0.50367627  0.21356835  0.63854390     1.02700
Fe575      Fe  0.17157170  0.52258137  0.69835701     1.65800
Fe576      Fe  0.26554345  0.44989103  0.68482086     1.73200
Fe577      Fe  0.16150197  0.40309244  0.71645848     1.54400
O578        O  0.13702562  0.44841738  0.74947992    -0.81900
O579        O  0.24895996  0.38562751  0.66399618    -0.80200
O580        O  0.17590375  0.52032761  0.74418667    -0.84400
O581        O  0.10035315  0.49889574  0.69990382    -0.79200
O582        O  0.21925761  0.38339925  0.74418914    -0.81000
O583        O  0.24543175  0.48768921  0.64621646    -0.83800
C584        C  0.07774472  0.46131432  0.69106705     0.97000
C585        C  0.15926893  0.48516915  0.76058023     1.04400
O586        O  0.19977333  0.45741533  0.69938416    -1.12700
O587        O  0.29363032  0.51132527  0.70510113    -0.75200
O588        O  0.23511660  0.56393921  0.69638187    -0.78700
O589        O  0.09927586  0.41988962  0.69028225    -0.79400
C590        C  0.27810970  0.55483099  0.70487362     0.95900
O591        O  0.17023711  0.51824063  0.65280095    -0.77300
O592        O  0.28748452  0.41176432  0.72220979    -0.82500
C593        C  0.22032671  0.34945393  0.66873210     0.98500
C594        C  0.26561958  0.38943451  0.74325074     1.04400
O595        O  0.18468007  0.35072656  0.68660043    -0.78200
C596        C  0.20408040  0.50256323  0.63607479     1.02700
Fe597      Fe  0.17703684  0.44819483  0.95055044     1.65800
Fe598      Fe  0.26676918  0.52293204  0.92919899     1.73200
Fe599      Fe  0.16887200  0.56761577  0.96514380     1.54400
O600        O  0.10388516  0.54812296  0.94167545    -0.81900
O601        O  0.29282605  0.56769821  0.96156616    -0.80200
O602        O  0.10686883  0.47044187  0.95609496    -0.84400
O603        O  0.17914631  0.44952682  0.49599847    -0.79200
O604        O  0.18946097  0.61997264  0.93287240    -0.81000
O605        O  0.29729999  0.46632644  0.95422991    -0.83800
C606        C  0.16161000  0.48453040  0.51092751     0.97000
C607        C  0.08337146  0.50572043  0.94482638     1.04400
O608        O  0.20424826  0.51414380  0.94783912    -1.12700
O609        O  0.24384974  0.47873741  0.89464202    -0.75200
O610        O  0.16806571  0.45171361  0.90507546    -0.78700
O611        O  0.14043976  0.52083815  0.49833892    -0.79400
C612        C  0.20073683  0.46549715  0.88650851     0.95900
O613        O  0.24148586  0.41035692  0.94591408    -0.77300
O614        O  0.24363103  0.58255399  0.90454532    -0.82500
C615        C  0.27663339  0.58679841  0.98468133     0.98500
C616        C  0.21929953  0.62003306  0.91144103     1.04400
O617        O  0.22713890  0.58148844  0.49076416    -0.78200
C618        C  0.28201354  0.42256611  0.95704642     1.02700
Fe619      Fe  0.51356851  0.79949395  0.81450465     1.65800
Fe620      Fe  0.44493924  0.70086704  0.83099242     1.73200
Fe621      Fe  0.39452420  0.80194212  0.79772667     1.54400
O622        O  0.40898094  0.86301962  0.82454871    -0.81900
O623        O  0.40813361  0.67636716  0.79421388    -0.80200
O624        O  0.48560030  0.86841025  0.81060198    -0.84400
O625        O  0.51132983  0.79395159  0.76900589    -0.79200
O626        O  0.34293528  0.77547888  0.82784317    -0.81000
O627        O  0.50800063  0.67720666  0.81091266    -0.83800
C628        C  0.47538052  0.80926786  0.75311281     0.97000
C629        C  0.44969454  0.88644487  0.82355434     1.04400
O630        O  0.45001576  0.76675791  0.81484978    -1.12700
O631        O  0.48081478  0.72430730  0.86895225    -0.75200
O632        O  0.50944569  0.80124119  0.85999498    -0.78700
O633        O  0.43904228  0.83068712  0.76447728    -0.79400
C634        C  0.49563175  0.76648780  0.87768468     0.95900
O635        O  0.55788453  0.73920868  0.81813647    -0.77300
O636        O  0.37979369  0.71358160  0.85189241    -0.82500
C637        C  0.38560707  0.69664368  0.77256322     0.98500
C638        C  0.34294034  0.74065476  0.84693546     1.04400
O639        O  0.37827282  0.74300278  0.77053017    -0.78200
C640        C  0.55048023  0.69598421  0.81002420     1.02700
C641        C  0.23254843  0.66644729  0.89574611    -0.00400
C642        C  0.22944405  0.66813216  0.86497578    -0.12200
C643        C  0.26077048  0.69892958  0.84841122     0.01900
C644        C  0.29741485  0.72693357  0.86266969    -0.00500
C645        C  0.29672064  0.72948727  0.89339742    -0.12200
C646        C  0.26358445  0.70062171  0.90993165     0.01800
H647        H  0.20572738  0.64214892  0.85384073     0.14700
H648        H  0.32448220  0.75111320  0.90457681     0.14700
C649        C  0.26590553  0.70272236  0.94157934     0.36400
C650        C  0.25800487  0.69698344  0.81679624     0.36300
N651        N  0.26721347  0.70489970  0.96693804    -0.44000
N652        N  0.25492728  0.69545145  0.79146996    -0.44000
C653        C  0.36451943  0.66410324  0.74972367    -0.00400
C654        C  0.32058651  0.67788295  0.73577867    -0.12200
C655        C  0.29271290  0.64406547  0.71977273     0.01900
C656        C  0.30993468  0.59544776  0.71620609    -0.00500
C657        C  0.35713364  0.58408182  0.72683440    -0.12200
C658        C  0.38398787  0.61728022  0.74390037     0.01800
H659        H  0.30582333  0.71412922  0.73932977     0.14700
H660        H  0.37222572  0.54804270  0.72318965     0.14700
C661        C  0.43077641  0.60152196  0.75566979     0.36400
C662        C  0.24517540  0.65991317  0.70932294     0.36300
N663        N  0.46806631  0.58834673  0.76508963    -0.44000
N664        N  0.20694219  0.67282982  0.70130211    -0.44000
C665        C  0.16693263  0.48456138  0.79326602    -0.00400
C666        C  0.13997564  0.45050700  0.81072199    -0.12200
C667        C  0.15046077  0.44271370  0.84077458     0.01900
C668        C  0.18869524  0.46944300  0.85437491    -0.00500
C669        C  0.21508648  0.50400514  0.83706651    -0.06600
C670        C  0.20483683  0.51165844  0.80705100     0.01800
H671        H  0.11115777  0.42867870  0.80070323     0.14700
H672        H  0.24411527  0.52562133  0.84705352     0.14700
C673        C  0.23548124  0.54626731  0.79104514     0.36400
C674        C  0.12293365  0.40519571  0.85650289     0.36300
N675        N  0.26044888  0.57412959  0.77858892    -0.44000
N676        N  0.10081496  0.37466057  0.86870607    -0.44000
C677        C  0.19436810  0.49893439  0.60369128    -0.00400
C678        C  0.15163878  0.51999122  0.59154357    -0.12200
C679        C  0.13876173  0.51398019  0.56187438     0.01900
C680        C  0.16861223  0.48569195  0.54343859    -0.00500
C681        C  0.21053693  0.46375067  0.55564342    -0.12200
C682        C  0.22403172  0.47044091  0.58507124     0.01800
H683        H  0.12785696  0.54122102  0.60528176     0.14700
H684        H  0.23401757  0.44238298  0.54181008     0.14700
C685        C  0.26859433  0.44693031  0.59508258     0.36400
C686        C  0.09415506  0.53671412  0.55124456     0.36300
N687        N  0.30444513  0.42802497  0.60278561    -0.44000
N688        N  0.05841615  0.55505821  0.54284994    -0.44000
C689        C  0.30974774  0.38558719  0.97490875    -0.00400
C690        C  0.30410408  0.33524374  0.96900609    -0.12200
C691        C  0.32631623  0.29801638  0.49181583     0.01900
C692        C  0.35075444  0.31306547  0.51779707    -0.00500
C693        C  0.35268271  0.36365635  0.52366979    -0.12200
C694        C  0.33661265  0.39908069  0.00014896     0.01800
H695        H  0.28306619  0.32428806  0.94986586     0.14700
H696        H  0.37054179  0.37646973  0.54349086     0.14700
C697        C  0.34153711  0.44953011  0.00900933     0.36400
C698        C  0.32143514  0.24690923  0.48429902     0.36300
N699        N  0.34541149  0.48962804  0.01669053    -0.44000
N700        N  0.31726309  0.20595410  0.47829685    -0.44000
C701        C  0.30179851  0.23880380  0.62870711    -0.00400
C702        C  0.26671505  0.26449537  0.61164603    -0.12200
C703        C  0.23387132  0.29681757  0.62473630     0.01900
C704        C  0.23495575  0.30271654  0.65542141    -0.00500
C705        C  0.26532246  0.27188820  0.67267585    -0.12200
C706        C  0.29896162  0.24052536  0.65957680     0.01800
H707        H  0.26860242  0.26367462  0.58785442     0.14700
H708        H  0.26668893  0.27630238  0.69631563     0.14700
C709        C  0.33252271  0.21297508  0.67810737     0.36400
C710        C  0.20212216  0.32646477  0.60618434     0.36300
N711        N  0.35908110  0.19046688  0.69297234    -0.44000
N712        N  0.17639948  0.34996055  0.59131663    -0.44000
C713        C  0.92762132  0.47430531  0.94008121    -0.00400
C714        C  0.96117710  0.43612441  0.93805323    -0.12200
C715        C  0.01177539  0.44596524  0.93668320     0.01900
C716        C  0.03030190  0.49525164  0.93824472    -0.00500
C717        C  0.99653937  0.53349435  0.93708349    -0.12200
C718        C  0.94589822  0.52367651  0.93752789     0.01800
H719        H  0.94813893  0.39833507  0.93887799     0.14700
H720        H  0.00962041  0.57125888  0.93724053     0.14700
C721        C  0.91385637  0.56566859  0.93606227     0.36400
C722        C  0.04355975  0.40403678  0.93447064     0.36300
N723        N  0.88822457  0.59932883  0.93496616    -0.44000
N724        N  0.06875602  0.37023653  0.93286787    -0.44000
C725        C  0.64780224  0.36560874  0.51166039    -0.00400
C726        C  0.59780540  0.36158695  0.00209585    -0.12200
C727        C  0.56204698  0.34364722  0.52137931     0.01900
C728        C  0.57532592  0.32278083  0.54889175    -0.00500
C729        C  0.62458639  0.32543850  0.55810908    -0.12200
C730        C  0.66063189  0.34744825  0.54013302     0.01800
H731        H  0.58731847  0.37669629  0.98072256     0.14700
H732        H  0.63501332  0.30982936  0.57938326     0.14700
C733        C  0.70999103  0.35074572  0.55169885     0.36400
C734        C  0.51104378  0.34373171  0.00886863     0.36300
N735        N  0.74940484  0.35360657  0.56116854    -0.44000
N736        N  0.47140851  0.34507308  0.99965241    -0.44000
C737        C  0.48364104  0.03784578  0.84005046    -0.00400
C738        C  0.43396602  0.02182779  0.83980879    -0.12200
C739        C  0.42091168  0.97215443  0.83685094     0.01900
C740        C  0.45792759  0.93683256  0.83511151    -0.00500
C741        C  0.50705837  0.95204334  0.84009936    -0.12200
C742        C  0.52022321  0.00186297  0.84210942     0.01800
H743        H  0.40480048  0.04865476  0.83959836     0.14700
H744        H  0.53608240  0.92504917  0.84020785     0.14700
C745        C  0.57155749  0.01472986  0.84385042     0.36400
C746        C  0.36980179  0.95948664  0.83298554     0.36300
N747        N  0.61281415  0.02475541  0.84519898    -0.44000
N748        N  0.32876800  0.94962833  0.82981545    -0.44000
C749        C  0.29620316  0.36769504  0.76698532    -0.00400
C750        C  0.28687532  0.31909090  0.77605064    -0.12200
C751        C  0.32029070  0.29358359  0.79402791     0.01900
C752        C  0.36427786  0.31715642  0.80343749    -0.00500
C753        C  0.37081275  0.36737666  0.79673154    -0.12200
C754        C  0.33732399  0.39265998  0.77863197     0.01800
H755        H  0.25488208  0.29994890  0.76754817     0.14700
H756        H  0.40290860  0.38662935  0.80490959     0.14700
C757        C  0.34577489  0.44429929  0.77261703     0.36400
C758        C  0.30945434  0.24243116  0.80057865     0.36300
N759        N  0.35263500  0.48582205  0.76826094    -0.44000
N760        N  0.30057028  0.20148238  0.80577290    -0.44000
C761        C  0.72343745  0.30439525  0.90382459    -0.00400
C762        C  0.69231821  0.27305100  0.92032405    -0.12200
C763        C  0.65702437  0.24350545  0.90635045     0.01900
C764        C  0.65337883  0.24431591  0.87544692    -0.00500
C765        C  0.68918384  0.27003117  0.85908129    -0.12200
C766        C  0.72386616  0.30021527  0.87301762     0.01800
H767        H  0.69161311  0.27589449  0.94406437     0.14700
H768        H  0.68685789  0.27068076  0.83525597     0.14700
C769        C  0.75708951  0.32954695  0.85524916     0.36400
C770        C  0.62312621  0.21489408  0.92404513     0.36300
N771        N  0.78407994  0.35270783  0.84103644    -0.44000
N772        N  0.59647376  0.19137481  0.93827954    -0.44000
C773        C  0.49979981  0.20317553  0.67092561    -0.00400
C774        C  0.47520139  0.23755523  0.68805693    -0.12200
C775        C  0.46439760  0.22808986  0.71768540     0.01900
C776        C  0.47857388  0.18340290  0.73140998    -0.00500
C777        C  0.50402599  0.14920748  0.71456228    -0.12200
C778        C  0.51437810  0.15835632  0.68469852     0.01800
H779        H  0.46312141  0.27205314  0.67817094     0.14700
H780        H  0.51624296  0.11505847  0.72485155     0.14700
C781        C  0.54009170  0.12100579  0.66904036     0.36400
C782        C  0.43958662  0.26579467  0.73337210     0.36300
N783        N  0.56058636  0.09097897  0.65651621    -0.44000
N784        N  0.41934818  0.29652039  0.74535377    -0.44000
C785        C  0.45886145  0.20661054  0.91949390    -0.00400
C786        C  0.43865105  0.16309496  0.93150610    -0.12200
C787        C  0.44517595  0.15021701  0.96123072     0.01900
C788        C  0.47309441  0.18101708  0.97992157    -0.00500
C789        C  0.49354962  0.22433072  0.96797644    -0.12200
C790        C  0.48646517  0.23770568  0.93835157     0.01800
H791        H  0.41774015  0.13860045  0.91757859     0.14700
H792        H  0.51431676  0.24866192  0.98206036     0.14700
C793        C  0.50915229  0.28321309  0.92830465     0.36400
C794        C  0.42295811  0.10473080  0.97162735     0.36300
N795        N  0.52750518  0.31971864  0.92053304    -0.44000
N796        N  0.40482989  0.06836913  0.97981631    -0.44000
C797        C  0.92297328  0.49282993  0.68608660    -0.00400
C798        C  0.93889886  0.44329535  0.68675411    -0.12200
C799        C  0.98883040  0.43105634  0.68548231     0.01900
C800        C  0.02447891  0.46873337  0.68384338    -0.00500
C801        C  0.00808349  0.51760339  0.67926601    -0.12200
C802        C  0.95822170  0.52982432  0.68028143     0.01800
H803        H  0.91237538  0.41367472  0.68953435     0.14700
H804        H  0.03464493  0.54717294  0.67635145     0.14700
C805        C  0.94489805  0.58079795  0.67656470     0.36400
C806        C  0.00219629  0.37985662  0.68711696     0.36300
N807        N  0.93429260  0.62167607  0.67340553    -0.44000
N808        N  0.01273662  0.33873847  0.68811230    -0.44000
C809        C  0.63978843  0.37973213  0.72217099    -0.00400
C810        C  0.59320217  0.39051276  0.73294871    -0.12200
C811        C  0.56847130  0.35736443  0.75157263     0.01900
C812        C  0.59028079  0.31201034  0.75976476    -0.00500
C813        C  0.63424604  0.29892375  0.74655986    -0.12200
C814        C  0.65921667  0.33213024  0.72798699     0.01800
H815        H  0.57691994  0.42599660  0.72800867     0.14700
H816        H  0.65079687  0.26382439  0.75220894     0.14700
C817        C  0.70615000  0.31697498  0.71710945     0.36400
C818        C  0.52114055  0.37164231  0.76221738     0.36300
N819        N  0.74380149  0.30466091  0.70853745    -0.44000
N820        N  0.48331720  0.38391373  0.77048850    -0.44000
C821        C  0.76748086  0.49828244  0.85733784    -0.00400
C822        C  0.73584647  0.46806157  0.84080562    -0.12200
C823        C  0.74340459  0.45999839  0.81082123     0.01900
C824        C  0.78368088  0.48226685  0.79623034    -0.00500
C825        C  0.81640019  0.51096464  0.81300046    -0.12200
C826        C  0.80873109  0.51918109  0.84301862     0.01800
H827        H  0.70456446  0.45044124  0.85131313     0.14700
H828        H  0.84752012  0.52865002  0.80236011     0.14700
C829        C  0.84252832  0.55148869  0.85782880     0.36400
C830        C  0.70768651  0.43029215  0.79568421     0.36300
N831        N  0.86981771  0.57789218  0.86919338    -0.44000
N832        N  0.67850491  0.40617869  0.78419201    -0.44000
C833        C  0.75261891  0.47871190  0.60710860    -0.00400
C834        C  0.80045783  0.47050095  0.59702525    -0.12200
C835        C  0.81296914  0.47868319  0.56750402     0.01900
C836        C  0.77739627  0.49556340  0.54706817    -0.00500
C837        C  0.73029701  0.50580678  0.55710313    -0.12200
C838        C  0.71738472  0.49731606  0.58655861     0.01800
H839        H  0.82869569  0.45802074  0.61228216     0.14700
H840        H  0.70274054  0.51862381  0.54153422     0.14700
C841        C  0.66738953  0.50754422  0.59442810     0.36400
C842        C  0.86303918  0.47069576  0.55892613     0.36300
N843        N  0.62720347  0.51587964  0.60037861    -0.44000
N844        N  0.90325893  0.46453877  0.55215496    -0.44000
C845        C  0.65866144  0.61319295  0.76471564    -0.00400
C846        C  0.66627066  0.66360717  0.76854058    -0.12200
C847        C  0.63335794  0.69110431  0.78480738     0.01900
C848        C  0.59183700  0.66770731  0.79787073    -0.00500
C849        C  0.58693394  0.61644340  0.79599834    -0.12200
C850        C  0.61977077  0.58921820  0.77960256     0.01800
H851        H  0.69618842  0.68217820  0.75716802     0.14700
H852        H  0.55619789  0.59771259  0.80641453     0.14700
C853        C  0.61233452  0.53674321  0.77816276     0.36400
C854        C  0.64144405  0.74364105  0.78547766     0.36300
N855        N  0.60600436  0.49469902  0.77728636    -0.44000
N856        N  0.64822151  0.78568938  0.78584750    -0.44000
C857        C  0.48978446  0.93340330  0.58221415    -0.00400
C858        C  0.44083519  0.94964351  0.58479505    -0.12200
C859        C  0.42940666  0.99956504  0.58764907     0.01900
C860        C  0.46728539  0.03502453  0.58763787    -0.00500
C861        C  0.51633011  0.01816508  0.58815230    -0.12200
C862        C  0.52776725  0.96825083  0.58543313     0.01800
H863        H  0.41085029  0.92333209  0.58351466     0.14700
H864        H  0.54639771  0.04441588  0.58926879     0.14700
C865        C  0.57868929  0.95458103  0.58429817     0.36400
C866        C  0.37855965  0.01321991  0.58939676     0.36300
N867        N  0.62019097  0.94583560  0.09121725    -0.44000
N868        N  0.33781848  0.02419307  0.59105238    -0.44000
C869        C  0.37430385  0.64933560  0.54609601    -0.00400
C870        C  0.39190123  0.61994609  0.52372964    -0.12200
C871        C  0.36510456  0.60484636  0.00090476     0.01900
C872        C  0.30844296  0.60246805  0.50693698    -0.00500
C873        C  0.29085596  0.62869580  0.53089353    -0.12200
C874        C  0.32314623  0.65240952  0.55021513     0.01800
H875        H  0.43734154  0.62322448  0.01634057     0.14700
H876        H  0.25170803  0.63218659  0.53405572     0.14700
C877        C  0.30270386  0.67976187  0.57392792     0.36400
C878        C  0.38585954  0.58487286  0.97466636     0.36300
N879        N  0.28604390  0.70159077  0.59289328    -0.44000
N880        N  0.40284528  0.56946059  0.95359676    -0.44000
C881        C  0.59627839  0.65481734  0.51248016    -0.00400
C882        C  0.59354501  0.60410864  0.51945419    -0.12200
C883        C  0.61469379  0.56903071  0.50156802     0.01900
C884        C  0.64830452  0.58190110  0.97549032    -0.00500
C885        C  0.65625107  0.63235836  0.96954821    -0.12200
C886        C  0.63520852  0.66854998  0.98688222     0.01800
H887        H  0.57558233  0.59142234  0.53942450     0.14700
H888        H  0.67965284  0.64370760  0.95143582     0.14700
C889        C  0.64510104  0.71940860  0.97916374     0.36400
C890        C  0.61265449  0.51828074  0.51150519     0.36300
N891        N  0.65291119  0.76013824  0.97278702    -0.44000
N892        N  0.61105999  0.47785017  0.51989987    -0.44000
C893        C  0.72064646  0.66897733  0.65163955    -0.00400
C894        C  0.69073722  0.70046537  0.66755593    -0.12200
C895        C  0.65649042  0.73092731  0.65315235     0.01900
C896        C  0.65287940  0.73130195  0.62223873    -0.00500
C897        C  0.68794214  0.70551351  0.60630410    -0.12200
C898        C  0.72122912  0.67386210  0.62075326     0.01800
H899        H  0.68987190  0.69687950  0.69135698     0.14700
H900        H  0.68562600  0.70558604  0.58248528     0.14700
C901        C  0.75248838  0.64353428  0.60344557     0.36400
C902        C  0.62334430  0.75893723  0.67057833     0.36300
N903        N  0.77771604  0.61957140  0.58945067    -0.44000
N904        N  0.59735448  0.78174541  0.68474784    -0.44000
C905        C  0.48276681  0.79098068  0.97118384    -0.00400
C906        C  0.51996600  0.81506834  0.95470680    -0.12200
C907        C  0.52494058  0.80822783  0.92440520     0.01900
C908        C  0.49331137  0.77535425  0.90982610    -0.00500
C909        C  0.45556364  0.75206220  0.92602023    -0.12200
C910        C  0.44950983  0.76019468  0.95609421     0.01800
H911        H  0.54580436  0.83937261  0.96549664     0.14700
H912        H  0.42961433  0.72818512  0.91494079     0.14700
C913        C  0.40812327  0.73725509  0.97050928     0.36400
C914        C  0.56322000  0.83496966  0.90902492     0.36300
N915        N  0.37445818  0.71967048  0.98203232    -0.44000
N916        N  0.59358247  0.85676163  0.89663555    -0.44000
C917        C  0.47305110  0.79992168  0.72106721    -0.00400
C918        C  0.44652392  0.83218677  0.70237579    -0.12200
C919        C  0.43693898  0.82094992  0.67284391     0.01900
C920        C  0.45385508  0.77621905  0.66139157    -0.00500
C921        C  0.48010758  0.74417061  0.68029256    -0.12200
C922        C  0.48960097  0.75538265  0.70959073     0.01800
H923        H  0.43245504  0.86604373  0.71101699     0.14700
H924        H  0.49399663  0.70986073  0.67218758     0.14700
C925        C  0.51431069  0.71871931  0.72743572     0.36400
C926        C  0.40872327  0.85557778  0.65530830     0.36300
N927        N  0.53403410  0.68831440  0.74101464    -0.44000
N928        N  0.38591480  0.88339313  0.64141842    -0.44000
loop_ 
_geom_bond_atom_site_label_1 
_geom_bond_atom_site_label_2 
_geom_bond_distance 
_geom_bond_site_symmetry_2 
_ccdc_geom_bond_type 
Fe1          O17   2.079       .  S
Fe1           O7   2.038       .  S
Fe1          O14   2.063       .  S
Fe1         O470   2.088       .  S
Fe1          O12   1.935       .  S
Fe2           O5   2.061       .  S
Fe2           O9   2.083       .  S
Fe2          O13   2.076       .  S
Fe2          O18   2.060       .  S
Fe2          O12   1.924       .  S
Fe3          O21   2.089       .  S
Fe3           O8   2.089       .  S
Fe3          O15   2.122       .  S
Fe3         O468   2.081       .  S
Fe3          O12   1.936       .  S
O4         Fe467   2.079       .  S
O4           C11   1.274       .  A
O5           C19   1.269       .  A
O6         Fe465   2.080       .  S
O6           C11   1.279       .  A
O7           C10   1.259       .  A
O8           C20   1.278       .  A
O9           C22   1.279       .  A
C10          O15   1.280       .  A
C10         C393   1.504       .  S
C11         C441   1.496       .  S
O13          C16   1.265       .  A
O14          C16   1.258       .  A
C16         C405   1.487       .  S
O17          C22   1.281       .  A
O18          C20   1.273       .  A
C19          O21   1.273       .  A
C19         C432   1.478       .  S
C20         C417   1.497       .  S
C22         C456   1.491       .  S
Fe23         O39   2.082       .  S
Fe23         O29   2.045       .  S
Fe23         O36   2.062       .  S
Fe23         O28   2.092       .  S
Fe23         O34   1.935       .  S
Fe24         O27   2.042       .  S
Fe24         O31   2.075       .  S
Fe24         O35   2.054       .  S
Fe24         O40   2.057       .  S
Fe24         O34   1.935       .  S
Fe25         O43   2.104       .  S
Fe25         O30   2.093       .  S
Fe25         O37   2.127       .  S
Fe25         O26   2.080       .  S
Fe25         O34   1.944       .  S
O26          C33   1.275       .  A
O27          C41   1.266       .  A
O28          C33   1.282       .  A
O29          C32   1.262       .  A
O30          C42   1.278       .  A
O31          C44   1.275       .  A
C32          O37   1.283       .  A
C32         C333   1.513       .  S
C33         C360   1.500       .  S
O35          C38   1.261       .  A
O36          C38   1.260       .  A
C38         C345   1.479       .  S
O39          C44   1.281       .  A
O40          C42   1.269       .  A
C41          O43   1.277       .  A
C41         C429   1.480       .  S
C42         C381   1.492       .  S
C44         C369   1.496       .  S
Fe45         O61   2.058       .  S
Fe45         O51   2.100       .  S
Fe45         O58   2.090       .  S
Fe45         O50   2.033       .  S
Fe45         O56   1.928       .  S
Fe46         O49   2.046       .  S
Fe46         O53   2.071       .  S
Fe46         O57   2.076       .  S
Fe46         O62   2.060       .  S
Fe46         O56   1.927       .  S
Fe47         O65   2.075       .  S
Fe47         O52   2.110       .  S
Fe47         O59   2.085       .  S
Fe47         O48   2.119       .  S
Fe47         O56   1.940       .  S
O48          C55   1.281       .  A
O49          C63   1.268       .  A
O50          C55   1.259       .  A
O51          C54   1.285       .  A
O52          C64   1.279       .  A
O53          C66   1.264       .  A
C54          O59   1.276       .  A
C54         C312   1.489       .  S
C55         C273   1.504       .  S
O57          C60   1.276       .  A
O58          C60   1.284       .  A
C60         C321   1.498       .  S
O61          C66   1.256       .  A
O62          C64   1.270       .  A
C63          O65   1.274       .  A
C63         C348   1.487       .  S
C64         C300   1.488       .  S
C66         C288   1.492       .  S
Fe67         O83   2.069       .  S
Fe67         O80   2.074       .  S
Fe67         O72   2.044       .  S
Fe67        O537   2.075       .  S
Fe67         O78   1.935       .  S
Fe68         O71   2.060       .  S
Fe68         O75   2.071       .  S
Fe68         O79   2.088       .  S
Fe68         O84   2.055       .  S
Fe68         O78   1.920       .  S
Fe69         O74   2.113       .  S
Fe69         O70   2.116       .  S
Fe69        O551   2.080       .  S
Fe69        O545   2.089       .  S
Fe69         O78   1.932       .  S
O70          C77   1.282       .  A
O71          C85   1.273       .  A
O72          C77   1.260       .  A
O73        Fe531   2.079       .  S
O73          C76   1.281   1_556  A
O74          C86   1.278       .  A
O75          C88   1.263       .  A
C76          O81   1.276       .  A
C76         C372   1.478       .  S
C77         C249   1.503       .  S
O79          C82   1.280       .  A
O80          C82   1.278       .  A
O81        Fe533   2.089   1_554  S
C82         C357   1.497       .  S
O83          C88   1.262       .  A
O84          C86   1.268       .  A
C85         O551   1.275       .  A
C85         C725   1.495       .  S
C86         C297   1.486       .  S
O87        Fe533   2.091       .  S
O87         C549   1.277       .  A
C88         C420   1.489       .  S
Fe89        O105   2.080       .  S
Fe89         O95   2.039       .  S
Fe89        O102   2.068       .  S
Fe89        O558   2.090       .  S
Fe89        O100   1.934       .  S
Fe90         O93   2.049       .  S
Fe90         O97   2.084       .  S
Fe90        O101   2.071       .  S
Fe90        O106   2.057       .  S
Fe90        O100   1.922       .  S
Fe91        O109   2.104       .  S
Fe91         O96   2.091       .  S
Fe91        O103   2.116       .  S
Fe91        O556   2.068       .  S
Fe91        O100   1.938       .  S
O92        Fe555   2.078       .  S
O92          C99   1.273       .  A
O93         C107   1.268       .  A
O94        Fe553   2.085       .  S
O94          C99   1.283       .  A
O95          C98   1.262       .  A
O96         C108   1.276       .  A
O97         C110   1.278       .  A
C98         O103   1.283       .  A
C98         C396   1.500       .  S
C99         C324   1.491       .  S
O101        C104   1.263       .  A
O102        C104   1.260       .  A
C104        C264   1.484       .  S
O105        C110   1.280       .  A
O106        C108   1.272       .  A
C107        O109   1.278       .  A
C107        C237   1.480       .  S
C108        C228   1.499       .  S
C110        C309   1.502       .  S
Fe111       O127   2.083       .  S
Fe111       O117   2.045       .  S
Fe111       O124   2.065       .  S
Fe111       O116   2.099       .  S
Fe111       O122   1.936       .  S
Fe112       O115   2.060       .  S
Fe112       O119   2.074       .  S
Fe112       O123   2.065       .  S
Fe112       O128   2.053       .  S
Fe112       O122   1.933       .  S
Fe113       O131   2.096       .  S
Fe113       O118   2.089       .  S
Fe113       O125   2.120       .  S
Fe113       O114   2.068       .  S
Fe113       O122   1.942       .  S
O114        C121   1.272       .  A
O115        C129   1.270       .  A
O116        C121   1.283       .  A
O117        C120   1.263       .  A
O118        C130   1.277       .  A
O119        C132   1.275       .  A
C120        O125   1.283       .  A
C120        C336   1.507       .  S
C121        C201   1.500       .  S
O123        C126   1.263       .  A
O124        C126   1.259       .  A
C126        C192   1.485       .  S
O127        C132   1.282       .  A
O128        C130   1.269       .  A
C129        O131   1.275       .  A
C129        C240   1.481       .  S
C130        C285   1.488       .  S
C132        C213   1.498       .  S
Fe133       O149   2.067       .  S
Fe133       O146   2.080       .  S
Fe133       O138   2.042       .  S
Fe133       O603   2.088       .  S
Fe133       O144   1.938       .  S
Fe134       O137   2.051       .  S
Fe134       O141   2.070       .  S
Fe134       O145   2.078       .  S
Fe134       O150   2.060       .  S
Fe134       O144   1.927       .  S
Fe135       O140   2.101       .  S
Fe135       O136   2.108       .  S
Fe135       O617   2.081       .  S
Fe135       O611   2.075       .  S
Fe135       O144   1.940       .  S
O136        C143   1.281       .  A
O137        C151   1.268       .  A
O138        C143   1.262       .  A
O139       Fe597   2.082       .  S
O139        C142   1.283   1_556  A
O140        C152   1.276       .  A
O141        C154   1.264       .  A
C142        O147   1.275       .  A
C142        C216   1.482       .  S
C143        C252   1.494       .  S
O145        C148   1.277       .  A
O146        C148   1.280       .  A
O147       Fe599   2.079   1_554  S
C148        C204   1.488       .  S
O149        C154   1.261       .  A
O150        C152   1.270       .  A
C151        O617   1.276       .  A
C151        C872   1.492       .  S
C152        C177   1.486       .  S
O153       Fe599   2.105       .  S
O153        C615   1.281       .  A
C154        C225   1.486       .  S
Fe155       O171   2.059       .  S
Fe155       O161   2.089       .  S
Fe155       O168   2.077       .  S
Fe155       O160   2.041       .  S
Fe155       O166   1.935       .  S
Fe156       O159   2.052       .  S
Fe156       O163   2.072       .  S
Fe156       O167   2.074       .  S
Fe156       O172   2.058       .  S
Fe156       O166   1.924       .  S
Fe157       O175   2.087       .  S
Fe157       O162   2.100       .  S
Fe157       O169   2.079       .  S
Fe157       O158   2.115       .  S
Fe157       O166   1.935       .  S
O158        C165   1.281       .  A
O159        C173   1.270       .  A
O160        C165   1.261       .  A
O161        C164   1.282       .  A
O162        C174   1.276       .  A
O163        C176   1.266       .  A
C164        O169   1.275       .  A
C164        C453   1.499       .  S
C165        C276   1.498       .  S
O167        C170   1.277       .  A
O168        C170   1.280       .  A
C170        C444   1.485       .  S
O171        C176   1.258       .  A
O172        C174   1.269       .  A
C173        O175   1.278       .  A
C173        C189   1.494       .  S
C174        C180   1.485       .  S
C176        C384   1.493       .  S
C177        C178   1.403       .  A
C177        C182   1.416       .  A
C178        C179   1.405       .  A
C178        H183   1.085       .  S
C179        C180   1.415       .  A
C179        C186   1.443       .  S
C180        C181   1.403       .  A
C181        C182   1.406       .  A
C181        H184   1.085       .  S
C182        C185   1.443       .  S
C185        N187   1.157       .  T
C186        N188   1.157       .  T
C189        C190   1.408       .  A
C189        C194   1.422       .  A
C190        C191   1.405       .  A
C190        H195   1.084       .  S
C191        C192   1.416       .  A
C191        C198   1.444       .  S
C192        C193   1.399       .  A
C193        C194   1.395       .  A
C193        H196   1.082       .  S
C194        C197   1.446       .  S
C197        N199   1.157       .  T
C198        N200   1.157       .  T
C201        C202   1.416       .  A
C201        C206   1.413       .  A
C202        C203   1.403       .  A
C202        H207   1.084       .  S
C203        C204   1.407       .  A
C203        C210   1.444       .  S
C204        C205   1.410       .  A
C205        C206   1.403       .  A
C205        H208   1.084       .  S
C206        C209   1.442       .  S
C209        N211   1.157       .  T
C210        N212   1.157       .  T
C213        C214   1.407       .  A
C213        C218   1.426       .  A
C214        C215   1.403       .  A
C214        H219   1.084       .  S
C215        C216   1.415       .  A
C215        C222   1.445       .  S
C216        C217   1.398       .  A
C217        C218   1.400       .  A
C217        H220   1.085       .  S
C218        C221   1.445       .  S
C221        N223   1.157       .  T
C222        N224   1.157       .  T
C225        C226   1.407       .  A
C225        C230   1.411       .  A
C226        C691   1.407       .  A
C226        H231   1.085       .  S
C227        C228   1.417   1_556  A
C227        C690   1.408       .  A
C227        C234   1.443       .  S
C228        C229   1.410       .  A
C229        C694   1.395       .  A
C229        H232   1.084       .  S
C230        C693   1.395       .  A
C230        C233   1.443       .  S
C233        N235   1.156       .  T
C234        N236   1.157       .  T
C237        C238   1.408       .  A
C237        C242   1.410       .  A
C238        C239   1.406       .  A
C238        H243   1.085       .  S
C239        C240   1.409       .  A
C239        C246   1.443       .  S
C240        C241   1.406       .  A
C241        C242   1.404       .  A
C241        H244   1.085       .  S
C242        C245   1.444       .  S
C245        N247   1.157       .  T
C246        N248   1.157       .  T
C249        C250   1.399       .  A
C249        C254   1.433       .  A
C250        C251   1.404   1_655  A
C250        H255   1.085       .  S
C251        C252   1.425       .  A
C251        C258   1.445       .  S
C252        C253   1.395   1_455  A
C253        C254   1.403       .  A
C253        H256   1.085   1_655  S
C254        C257   1.445       .  S
C257        N259   1.158       .  T
C258        N260   1.157       .  T
C261        C549   1.498   1_554  S
C261        C266   1.417       .  A
C261        C726   1.412       .  A
C262        C725   1.410       .  A
C262        C727   1.395       .  A
C262        H267   1.084       .  S
C263        C264   1.409       .  A
C263        C726   1.396       .  A
C263        C734   1.445       .  S
C264        C265   1.408       .  A
C265        C266   1.407       .  A
C265        H268   1.085       .  S
C266        C269   1.444       .  S
C269        N271   1.158       .  T
C270        C727   1.445       .  S
C270        N272   1.157       .  T
C273        C274   1.421       .  A
C273        C278   1.407       .  A
C274        C275   1.403   1_545  A
C274        H279   1.084       .  S
C275        C276   1.404       .  A
C275        C282   1.444       .  S
C276        C277   1.419       .  A
C277        C278   1.407   1_565  A
C277        H280   1.084       .  S
C278        C281   1.443       .  S
C281        N283   1.157       .  T
C282        N284   1.157       .  T
C285        C286   1.403       .  A
C285        C290   1.420       .  A
C286        C287   1.403       .  A
C286        H291   1.085       .  S
C287        C288   1.421       .  A
C287        C294   1.444       .  S
C288        C289   1.401       .  A
C289        C290   1.397       .  A
C289        H292   1.085       .  S
C290        C293   1.444       .  S
C293        N295   1.157       .  T
C294        N296   1.157       .  T
C297        C298   1.407       .  A
C297        C302   1.410       .  A
C298        C299   1.407       .  A
C298        H303   1.085       .  S
C299        C300   1.411       .  A
C299        C306   1.442       .  S
C300        C301   1.407       .  A
C301        C302   1.408       .  A
C301        H304   1.085       .  S
C302        C305   1.442       .  S
C305        N307   1.157       .  T
C306        N308   1.157       .  T
C309        C310   1.410       .  A
C309        C314   1.419       .  A
C310        C311   1.403       .  A
C310        H315   1.084       .  S
C311        C312   1.410       .  A
C311        C318   1.440       .  S
C312        C313   1.406       .  A
C313        C314   1.407       .  A
C313        H316   1.085       .  S
C314        C317   1.443       .  S
C317        N319   1.157       .  T
C318        N320   1.156       .  T
C321        C322   1.405       .  A
C321        C326   1.425       .  A
C322        C323   1.406       .  A
C322        H327   1.084       .  S
C323        C324   1.421       .  A
C323        C330   1.444       .  S
C324        C325   1.399       .  A
C325        C326   1.399       .  A
C325        H328   1.085       .  S
C326        C329   1.445       .  S
C329        N331   1.158       .  T
C330        N332   1.157       .  T
C333        C334   1.422       .  A
C333        C338   1.409       .  A
C334        C335   1.409       .  A
C334        H339   1.084       .  S
C335        C336   1.407   1_655  A
C335        C342   1.443   1_655  S
C336        C337   1.420       .  A
C337        C338   1.409   1_455  A
C337        H340   1.084       .  S
C338        C341   1.443       .  S
C341        N343   1.157       .  T
C342        N344   1.157       .  T
C345        C346   1.400       .  A
C345        C350   1.413       .  A
C346        C347   1.394       .  A
C346        H351   1.081       .  S
C347        C348   1.421       .  A
C347        C354   1.446       .  S
C348        C349   1.406       .  A
C349        C350   1.400       .  A
C349        H352   1.084       .  S
C350        C353   1.444       .  S
C353        N355   1.157       .  T
C354        N356   1.158       .  T
C357        C358   1.409       .  A
C357        C362   1.414       .  A
C358        C359   1.403       .  A
C358        H363   1.085       .  S
C359        C360   1.413       .  A
C359        C366   1.441       .  S
C360        C361   1.413       .  A
C361        C362   1.406       .  A
C361        H364   1.084       .  S
C362        C365   1.444       .  S
C365        N367   1.157       .  T
C366        N368   1.156       .  T
C369        C370   1.409       .  A
C369        C374   1.424       .  A
C370        C371   1.404       .  A
C370        H375   1.084       .  S
C371        C372   1.410       .  A
C371        C378   1.444       .  S
C372        C373   1.399       .  A
C373        C374   1.401       .  A
C373        H376   1.085       .  S
C374        C377   1.445       .  S
C377        N379   1.157       .  T
C378        N380   1.157       .  T
C381        C382   1.403       .  A
C381        C386   1.421       .  A
C382        C383   1.405       .  A
C382        H387   1.085       .  S
C383        C384   1.422       .  A
C383        C390   1.444       .  S
C384        C385   1.402       .  A
C385        C386   1.398       .  A
C385        H388   1.085       .  S
C386        C389   1.444       .  S
C389        N391   1.157       .  T
C390        N392   1.157       .  T
C393        C394   1.420       .  A
C393        C398   1.408       .  A
C394        C395   1.403       .  A
C394        H399   1.084       .  S
C395        C396   1.405   1_565  A
C395        C402   1.443   1_565  S
C396        C397   1.420       .  A
C397        C398   1.408   1_545  A
C397        H400   1.084       .  S
C398        C401   1.443       .  S
C401        N867   1.157       .  T
C402        N404   1.157       .  T
N403        C865   1.157       .  T
C405        C406   1.397       .  A
C405        C410   1.416       .  A
C406        C871   1.397       .  A
C406        H875   1.086       .  S
C407        C870   1.395       .  A
C407        C872   1.423       .  A
C407        C414   1.446       .  S
C408        C615   1.504   1_554  S
C408        C409   1.409       .  A
C408        C871   1.427       .  A
C409        C410   1.408       .  A
C409        H412   1.085       .  S
C410        C413   1.444       .  S
H411        C870   1.086       .  S
C413        N415   1.157       .  T
C414        N416   1.158       .  T
C417        C418   1.410       .  A
C417        C886   1.416   1_554  A
C418        C419   1.398   1_554  A
C418        H423   1.085       .  S
C419        C884   1.413       .  A
C419        C426   1.444   1_556  S
C420        C421   1.406       .  A
C420        C883   1.413       .  A
C421        C422   1.405       .  A
C421        H424   1.085       .  S
C422        C881   1.419       .  A
C422        C425   1.443       .  S
C425        N427   1.157       .  T
C426        N428   1.157       .  T
C429        C430   1.408       .  A
C429        C434   1.411       .  A
C430        C431   1.407       .  A
C430        H435   1.085       .  S
C431        C432   1.408       .  A
C431        C438   1.443       .  S
C432        C433   1.404       .  A
C433        C434   1.401       .  A
C433        H436   1.086       .  S
C434        C437   1.445       .  S
C437        N439   1.157       .  T
C438        N440   1.157       .  T
C441        C442   1.414       .  A
C441        C446   1.414       .  A
C442        C443   1.403       .  A
C442        H447   1.084       .  S
C443        C444   1.406       .  A
C443        C450   1.444       .  S
C444        C445   1.408       .  A
C445        C446   1.401       .  A
C445        H448   1.084       .  S
C446        C449   1.443       .  S
C449        N451   1.157       .  T
C450        N452   1.157       .  T
C453        C454   1.415       .  A
C453        C458   1.414       .  A
C454        C455   1.404       .  A
C454        H459   1.084       .  S
C455        C456   1.409       .  A
C455        C462   1.444       .  S
C456        C457   1.409       .  A
C457        C458   1.403       .  A
C457        H460   1.085       .  S
C458        C461   1.443       .  S
C461        N463   1.157       .  T
C462        N464   1.157       .  T
Fe465       O481   2.067       .  S
Fe465       O471   2.048       .  S
Fe465       O478   2.067       .  S
Fe465       O476   1.942       .  S
Fe466       O469   2.061       .  S
Fe466       O473   2.084       .  S
Fe466       O477   2.058       .  S
Fe466       O482   2.072       .  S
Fe466       O476   1.927       .  S
Fe467       O485   2.092       .  S
Fe467       O472   2.082       .  S
Fe467       O479   2.110       .  S
Fe467       O476   1.935       .  S
O468        C475   1.276       .  A
O469        C483   1.268       .  A
O470        C475   1.283       .  A
O471        C474   1.263       .  A
O472        C484   1.277       .  A
O473        C486   1.280       .  A
C474        O479   1.279       .  A
C474        C857   1.499       .  S
C475        C905   1.500   1_554  S
O477        C480   1.263       .  A
O478        C480   1.261       .  A
C480        C869   1.481       .  S
O481        C486   1.277       .  A
O482        C484   1.276       .  A
C483        O485   1.272       .  A
C483        C896   1.483       .  S
C484        C881   1.501       .  S
C486        C920   1.494       .  S
Fe487       O503   2.070       .  S
Fe487       O493   2.041       .  S
Fe487       O500   2.049       .  S
Fe487       O492   2.090       .  S
Fe487       O498   1.935       .  S
Fe488       O491   2.048       .  S
Fe488       O495   2.093       .  S
Fe488       O499   2.067       .  S
Fe488       O504   2.058       .  S
Fe488       O498   1.926       .  S
Fe489       O507   2.097       .  S
Fe489       O494   2.083       .  S
Fe489       O501   2.116       .  S
Fe489       O490   2.095       .  S
Fe489       O498   1.937       .  S
O490        C497   1.282       .  A
O491        C505   1.267       .  A
O492        C497   1.286       .  A
O493        C496   1.257       .  A
O494        C506   1.276       .  A
O495        C508   1.283       .  A
C496        O501   1.276       .  A
C496        C797   1.504       .  S
C497        C824   1.500       .  S
O499        C502   1.260       .  A
O500        C502   1.252       .  A
C502        C809   1.488       .  S
O503        C508   1.285       .  A
O504        C506   1.272       .  A
C505        O507   1.276       .  A
C505        C893   1.477       .  S
C506        C845   1.476       .  S
C508        C833   1.499       .  S
Fe509       O525   2.044       .  S
Fe509       O515   2.097       .  S
Fe509       O522   2.075       .  S
Fe509       O514   2.030       .  S
Fe509       O520   1.927       .  S
Fe510       O513   2.047       .  S
Fe510       O517   2.078       .  S
Fe510       O521   2.080       .  S
Fe510       O526   2.065       .  S
Fe510       O520   1.927       .  S
Fe511       O529   2.084       .  S
Fe511       O516   2.088       .  S
Fe511       O523   2.078       .  S
Fe511       O512   2.118       .  S
Fe511       O520   1.942       .  S
O512        C519   1.278       .  A
O513        C527   1.270       .  A
O514        C519   1.257       .  A
O515        C518   1.286       .  A
O516        C528   1.274       .  A
O517        C530   1.262       .  A
C518        O523   1.275       .  A
C518        C776   1.492       .  S
C519        C737   1.498       .  S
O521        C524   1.279       .  A
O522        C524   1.286       .  A
C524        C785   1.493       .  S
O525        C530   1.251       .  A
O526        C528   1.271       .  A
C527        O529   1.277       .  A
C527        C812   1.479       .  S
C528        C764   1.480       .  S
C530        C752   1.488       .  S
Fe531       O547   2.067       .  S
Fe531       O544   2.087       .  S
Fe531       O536   2.038       .  S
Fe531       O542   1.930       .  S
Fe532       O535   2.056       .  S
Fe532       O539   2.069       .  S
Fe532       O543   2.085       .  S
Fe532       O548   2.050       .  S
Fe532       O542   1.918       .  S
Fe533       O538   2.105       .  S
Fe533       O534   2.128       .  S
Fe533       O542   1.934       .  S
O534        C541   1.283       .  A
O535        C549   1.272       .  A
O536        C541   1.258       .  A
O537        C540   1.279       .  A
O538        C550   1.277       .  A
O539        C552   1.263       .  A
C540        O545   1.277       .  A
C540        C836   1.483       .  S
C541        C713   1.502       .  S
O543        C546   1.279       .  A
O544        C546   1.281       .  A
C546        C821   1.502       .  S
O547        C552   1.261       .  A
O548        C550   1.268       .  A
C550        C761   1.480       .  S
C552        C884   1.490       .  S
Fe553       O569   2.072       .  S
Fe553       O559   2.040       .  S
Fe553       O566   2.068       .  S
Fe553       O564   1.937       .  S
Fe554       O557   2.057       .  S
Fe554       O561   2.085       .  S
Fe554       O565   2.067       .  S
Fe554       O570   2.062       .  S
Fe554       O564   1.928       .  S
Fe555       O573   2.102       .  S
Fe555       O560   2.079       .  S
Fe555       O567   2.110       .  S
Fe555       O564   1.940       .  S
O556        C563   1.272       .  A
O557        C571   1.269       .  A
O558        C563   1.283       .  A
O559        C562   1.262       .  A
O560        C572   1.274       .  A
O561        C574   1.279       .  A
C562        O567   1.280       .  A
C562        C860   1.501       .  S
C563        C788   1.487   1_554  S
O565        C568   1.263       .  A
O566        C568   1.260       .  A
C568        C728   1.480       .  S
O569        C574   1.278       .  A
O570        C572   1.273       .  A
C571        O573   1.277       .  A
C571        C701   1.484       .  S
C572        C692   1.497       .  S
C574        C773   1.498       .  S
Fe575       O591   2.079       .  S
Fe575       O581   2.043       .  S
Fe575       O588   2.060       .  S
Fe575       O580   2.087       .  S
Fe575       O586   1.939       .  S
Fe576       O579   2.052       .  S
Fe576       O583   2.087       .  S
Fe576       O587   2.065       .  S
Fe576       O592   2.060       .  S
Fe576       O586   1.933       .  S
Fe577       O595   2.097       .  S
Fe577       O582   2.077       .  S
Fe577       O589   2.113       .  S
Fe577       O578   2.084       .  S
Fe577       O586   1.952       .  S
O578        C585   1.276       .  A
O579        C593   1.267       .  A
O580        C585   1.282       .  A
O581        C584   1.261       .  A
O582        C594   1.275       .  A
O583        C596   1.281       .  A
C584        O589   1.277       .  A
C584        C800   1.502       .  S
C585        C665   1.500       .  S
O587        C590   1.261       .  A
O588        C590   1.257       .  A
C590        C656   1.497       .  S
O591        C596   1.284       .  A
O592        C594   1.272       .  A
C593        O595   1.274       .  A
C593        C704   1.480       .  S
C594        C749   1.475       .  S
C596        C677   1.500       .  S
Fe597       O613   2.061       .  S
Fe597       O610   2.082       .  S
Fe597       O602   2.033       .  S
Fe597       O608   1.937       .  S
Fe598       O601   2.050       .  S
Fe598       O605   2.071       .  S
Fe598       O609   2.089       .  S
Fe598       O614   2.052       .  S
Fe598       O608   1.922       .  S
Fe599       O604   2.099       .  S
Fe599       O600   2.131       .  S
Fe599       O608   1.939       .  S
O600        C607   1.283       .  A
O601        C615   1.268       .  A
O602        C607   1.256       .  A
O603        C606   1.281       .  A
O604        C616   1.276       .  A
O605        C618   1.262       .  A
C606        O611   1.271       .  A
C606        C680   1.491       .  S
C607        C716   1.502       .  S
O609        C612   1.281       .  A
O610        C612   1.281       .  A
C612        C668   1.497       .  S
O613        C618   1.257       .  A
O614        C616   1.269       .  A
C616        C641   1.480       .  S
C618        C689   1.487       .  S
Fe619       O635   2.050       .  S
Fe619       O625   2.079       .  S
Fe619       O632   2.076       .  S
Fe619       O624   2.034       .  S
Fe619       O630   1.942       .  S
Fe620       O623   2.064       .  S
Fe620       O627   2.070       .  S
Fe620       O631   2.087       .  S
Fe620       O636   2.059       .  S
Fe620       O630   1.926       .  S
Fe621       O639   2.090       .  S
Fe621       O626   2.085       .  S
Fe621       O633   2.083       .  S
Fe621       O622   2.116       .  S
Fe621       O630   1.946       .  S
O622        C629   1.276       .  A
O623        C637   1.274       .  A
O624        C629   1.257       .  A
O625        C628   1.281       .  A
O626        C638   1.271       .  A
O627        C640   1.263       .  A
C628        O633   1.274       .  A
C628        C917   1.487       .  S
C629        C740   1.494       .  S
O631        C634   1.283       .  A
O632        C634   1.284       .  A
C634        C908   1.490       .  S
O635        C640   1.255       .  A
O636        C638   1.268       .  A
C637        O639   1.280       .  A
C637        C653   1.489       .  S
C638        C644   1.480       .  S
C640        C848   1.489       .  S
C641        C642   1.402       .  A
C641        C646   1.415       .  A
C642        C643   1.404       .  A
C642        H647   1.085       .  S
C643        C644   1.413       .  A
C643        C650   1.442       .  S
C644        C645   1.402       .  A
C645        C646   1.404       .  A
C645        H648   1.085       .  S
C646        C649   1.443       .  S
C649        N651   1.157       .  T
C650        N652   1.156       .  T
C653        C654   1.402       .  A
C653        C658   1.416       .  A
C654        C655   1.401       .  A
C654        H659   1.085       .  S
C655        C656   1.421       .  A
C655        C662   1.444       .  S
C656        C657   1.406       .  A
C657        C658   1.402       .  A
C657        H660   1.084       .  S
C658        C661   1.445       .  S
C661        N663   1.157       .  T
C662        N664   1.157       .  T
C665        C666   1.412       .  A
C665        C670   1.415       .  A
C666        C667   1.406       .  A
C666        H671   1.084       .  S
C667        C668   1.412       .  A
C667        C674   1.442       .  S
C668        C669   1.410       .  A
C669        C670   1.403       .  A
C669        H672   1.085       .  S
C670        C673   1.443       .  S
C673        N675   1.157       .  T
C674        N676   1.157       .  T
C677        C678   1.407       .  A
C677        C682   1.424       .  A
C678        C679   1.405       .  A
C678        H683   1.084       .  S
C679        C680   1.419       .  A
C679        C686   1.445       .  S
C680        C681   1.400       .  A
C681        C682   1.401       .  A
C681        H684   1.084       .  S
C682        C685   1.445       .  S
C685        N687   1.157       .  T
C686        N688   1.158       .  T
C689        C690   1.408       .  A
C689        C694   1.411   1_556  A
C690        H695   1.085       .  S
C691        C692   1.419       .  A
C691        C698   1.444       .  S
C692        C693   1.408       .  A
C693        H696   1.084       .  S
C694        C697   1.444       .  S
C697        N699   1.157       .  T
C698        N700   1.158       .  T
C701        C702   1.408       .  A
C701        C706   1.409       .  A
C702        C703   1.407       .  A
C702        H707   1.085       .  S
C703        C704   1.409       .  A
C703        C710   1.443       .  S
C704        C705   1.406       .  A
C705        C706   1.405       .  A
C705        H708   1.085       .  S
C706        C709   1.443       .  S
C709        N711   1.157       .  T
C710        N712   1.157       .  T
C713        C714   1.396       .  A
C713        C718   1.431       .  A
C714        C715   1.406   1_655  A
C714        H719   1.085       .  S
C715        C716   1.432       .  A
C715        C722   1.445       .  S
C716        C717   1.396   1_455  A
C717        C718   1.405       .  A
C717        H720   1.085   1_655  S
C718        C721   1.445       .  S
C721        N723   1.157       .  T
C722        N724   1.157       .  T
C725        C730   1.418       .  A
C726        H731   1.084   1_554  S
C727        C728   1.409       .  A
C728        C729   1.406       .  A
C729        C730   1.406       .  A
C729        H732   1.085       .  S
C730        C733   1.444       .  S
C733        N735   1.158       .  T
C734        N736   1.157   1_554  T
C737        C738   1.420       .  A
C737        C742   1.406       .  A
C738        C739   1.403   1_545  A
C738        H743   1.085       .  S
C739        C740   1.405       .  A
C739        C746   1.444       .  S
C740        C741   1.417       .  A
C741        C742   1.404   1_565  A
C741        H744   1.085       .  S
C742        C745   1.443       .  S
C745        N747   1.157       .  T
C746        N748   1.157       .  T
C749        C750   1.398       .  A
C749        C754   1.412       .  A
C750        C751   1.398       .  A
C750        H755   1.085       .  S
C751        C752   1.423       .  A
C751        C758   1.445       .  S
C752        C753   1.403       .  A
C753        C754   1.400       .  A
C753        H756   1.084       .  S
C754        C757   1.442       .  S
C757        N759   1.156       .  T
C758        N760   1.157       .  T
C761        C762   1.407       .  A
C761        C766   1.409       .  A
C762        C763   1.406       .  A
C762        H767   1.085       .  S
C763        C764   1.408       .  A
C763        C770   1.443       .  S
C764        C765   1.405       .  A
C765        C766   1.404       .  A
C765        H768   1.085       .  S
C766        C769   1.443       .  S
C769        N771   1.157       .  T
C770        N772   1.157       .  T
C773        C774   1.410       .  A
C773        C778   1.417       .  A
C774        C775   1.400       .  A
C774        H779   1.084       .  S
C775        C776   1.410       .  A
C775        C782   1.440       .  S
C776        C777   1.410       .  A
C777        C778   1.407       .  A
C777        H780   1.085       .  S
C778        C781   1.445       .  S
C781        N783   1.158       .  T
C782        N784   1.156       .  T
C785        C786   1.403       .  A
C785        C790   1.424       .  A
C786        C787   1.400       .  A
C786        H791   1.085       .  S
C787        C788   1.419       .  A
C787        C794   1.445       .  S
C788        C789   1.400       .  A
C789        C790   1.400       .  A
C789        H792   1.084       .  S
C790        C793   1.446       .  S
C793        N795   1.158       .  T
C794        N796   1.157       .  T
C797        C798   1.419       .  A
C797        C802   1.408       .  A
C798        C799   1.408       .  A
C798        H803   1.084       .  S
C799        C800   1.408   1_655  A
C799        C806   1.443   1_655  S
C800        C801   1.417       .  A
C801        C802   1.405   1_455  A
C801        H804   1.084       .  S
C802        C805   1.443       .  S
C805        N807   1.157       .  T
C806        N808   1.157       .  T
C809        C810   1.403       .  A
C809        C814   1.422       .  A
C810        C811   1.397       .  A
C810        H815   1.085       .  S
C811        C812   1.416       .  A
C811        C818   1.443       .  S
C812        C813   1.399       .  A
C813        C814   1.399       .  A
C813        H816   1.085       .  S
C814        C817   1.444       .  S
C817        N819   1.157       .  T
C818        N820   1.156       .  T
C821        C822   1.411       .  A
C821        C826   1.414       .  A
C822        C823   1.404       .  A
C822        H827   1.084       .  S
C823        C824   1.413       .  A
C823        C830   1.441       .  S
C824        C825   1.411       .  A
C825        C826   1.407       .  A
C825        H828   1.084       .  S
C826        C829   1.441       .  S
C829        N831   1.157       .  T
C830        N832   1.156       .  T
C833        C834   1.409       .  A
C833        C838   1.424       .  A
C834        C835   1.401       .  A
C834        H839   1.084       .  S
C835        C836   1.411       .  A
C835        C842   1.444       .  S
C836        C837   1.400       .  A
C837        C838   1.402       .  A
C837        H840   1.083       .  S
C838        C841   1.445       .  S
C841        N843   1.158       .  T
C842        N844   1.157       .  T
C845        C846   1.400       .  A
C845        C850   1.411       .  A
C846        C847   1.401       .  A
C846        H851   1.085       .  S
C847        C848   1.422       .  A
C847        C854   1.445       .  S
C848        C849   1.404       .  A
C849        C850   1.399       .  A
C849        H852   1.084       .  S
C850        C853   1.443       .  S
C853        N855   1.157       .  T
C854        N856   1.158       .  T
C857        C858   1.417       .  A
C857        C862   1.407       .  A
C858        C859   1.405       .  A
C858        H863   1.084       .  S
C859        C860   1.407   1_565  A
C859        C866   1.443   1_565  S
C860        C861   1.419       .  A
C861        C862   1.405   1_545  A
C861        H864   1.084       .  S
C862        C865   1.443       .  S
C866        N868   1.157       .  T
C869        C870   1.399       .  A
C869        C874   1.414       .  A
C871        C878   1.445   1_554  S
C872        C873   1.407       .  A
C873        C874   1.402       .  A
C873        H876   1.084       .  S
C874        C877   1.444       .  S
C877        N879   1.157       .  T
C878        N880   1.157       .  T
C881        C882   1.410       .  A
C882        C883   1.400       .  A
C882        H887   1.084       .  S
C883        C890   1.444       .  S
C884        C885   1.408       .  A
C885        C886   1.405       .  A
C885        H888   1.085       .  S
C886        C889   1.443       .  S
C889        N891   1.157       .  T
C890        N892   1.157       .  T
C893        C894   1.406       .  A
C893        C898   1.409       .  A
C894        C895   1.403       .  A
C894        H899   1.086       .  S
C895        C896   1.409       .  A
C895        C902   1.442       .  S
C896        C897   1.408       .  A
C897        C898   1.406       .  A
C897        H900   1.085       .  S
C898        C901   1.443       .  S
C901        N903   1.157       .  T
C902        N904   1.157       .  T
C905        C906   1.414       .  A
C905        C910   1.413       .  A
C906        C907   1.403       .  A
C906        H911   1.084       .  S
C907        C908   1.410       .  A
C907        C914   1.444       .  S
C908        C909   1.409       .  A
C909        C910   1.403       .  A
C909        H912   1.085       .  S
C910        C913   1.441       .  S
C913        N915   1.156       .  T
C914        N916   1.157       .  T
C917        C918   1.409       .  A
C917        C922   1.410       .  A
C918        C919   1.407       .  A
C918        H923   1.085       .  S
C919        C920   1.417       .  A
C919        C926   1.444       .  S
C920        C921   1.407       .  A
C921        C922   1.396       .  A
C921        H924   1.084       .  S
C922        C925   1.440       .  S
C925        N927   1.155       .  T
C926        N928   1.157       .  T
