geometry optimzed in LAMMPS
_audit_creation_date              2020-11-30 
_audit_creation_method            'lammps2cif' 
_symmetry_space_group_name_H-M    'P1' 
_symmetry_Int_Tables_number       1 
_symmetry_cell_setting            triclinic 
loop_ 
_symmetry_equiv_pos_as_xyz 
  x,y,z 
_cell_length_a                    45.4964286606798 
_cell_length_b                    44.63135370990207 
_cell_length_c                    34.597850999290486 
_cell_angle_alpha                 90.35975658781037 
_cell_angle_beta                  88.70742595750687 
_cell_angle_gamma                 120.26264235702949 
loop_ 
_atom_site_label 
_atom_site_type_symbol 
_atom_site_fract_x 
_atom_site_fract_y 
_atom_site_fract_z 
_atom_site_charge 
O1          O  0.59567949  0.57332547  0.26513394    -0.79860
O2          O  0.70440463  0.55228907  0.25674941    -0.64550
O3          O  0.61776649  0.53341697  0.28733040    -1.11150
C4          C  0.67663810  0.61843484  0.37711460     1.07030
O5          O  0.71135318  0.54023439  0.31759218    -0.77760
O6          O  0.65655680  0.52411982  0.37103847    -0.65340
Ni7        Ni  0.58768444  0.52933499  0.24894935     1.34870
C8          C  0.62684818  0.51972029  0.37822454     0.85760
O9          O  0.64097989  0.50665863  0.23006222    -0.78300
O10         O  0.58438108  0.48668381  0.23486658    -0.88570
C11         C  0.72016520  0.54466590  0.28123094     0.85340
O12         O  0.61725238  0.55034825  0.20558093    -0.66770
O13         O  0.68897832  0.59863239  0.38500198    -0.86060
C14         C  0.64420492  0.57888067  0.20908922     0.86170
C15         C  0.60969566  0.48270577  0.22590476     1.07740
H16         H  0.69285497  0.59849419  0.29903751     0.39540
O17         O  0.67693550  0.57577491  0.30942005    -1.08720
O18         O  0.61967052  0.54197199  0.36542524    -0.65370
Ni19       Ni  0.63530384  0.57298421  0.32031996     1.26350
O20         O  0.66547734  0.58136008  0.23446705    -0.65600
O21         O  0.65590743  0.61191426  0.35038064    -0.77890
C22         C  0.57946827  0.56992763  0.29601914     0.85550
O23         O  0.59375633  0.57232755  0.32735193    -0.65070
Ni24       Ni  0.69725750  0.56701844  0.35136607     1.27450
Ni25       Ni  0.66024959  0.54292729  0.26911695     1.26060
H26         H  0.60806327  0.51215160  0.30211566     0.40090
O27         O  0.56386255  0.56982490  0.06886749    -0.79860
O28         O  0.55103162  0.69217599  0.07893963    -0.64550
O29         O  0.52681986  0.60172037  0.05151051    -1.11150
C30         C  0.60895336  0.66205832  0.45649635     1.07030
O31         O  0.53383169  0.69694078  0.02031366    -0.77760
O32         O  0.52051669  0.64706120  0.46013013    -0.65340
Ni33       Ni  0.52377058  0.57009340  0.08882312     1.34870
C34         C  0.51029756  0.61450592  0.45710055     0.85760
O35         O  0.50820116  0.62987398  0.11200276    -0.78300
O36         O  0.48487032  0.57182877  0.10864010    -0.88570
C37         C  0.54102593  0.70715055  0.05581416     0.85340
O38         O  0.55100423  0.60063526  0.12868252    -0.66770
O39         O  0.59483351  0.68063898  0.45164948    -0.86060
C40         C  0.57821315  0.62894198  0.12226595     0.86170
C41         C  0.48335333  0.59899650  0.11756439     1.07740
H42         H  0.59114833  0.67512260  0.03219024     0.39540
O43         O  0.56791081  0.66083026  0.02409565    -1.08720
O44         O  0.52614805  0.60180515  0.47396489    -0.65370
Ni45       Ni  0.56083895  0.61697983  0.01290894     1.26350
O46         O  0.57851616  0.65075581  0.09795065    -0.65600
O47         O  0.59550994  0.63445195  0.47625940    -0.77890
C48         C  0.57026329  0.56604275  0.03355450     0.85550
O49         O  0.55739266  0.57435360  0.00676035    -0.65070
Ni50       Ni  0.56149352  0.68568019  0.48479690     1.27450
Ni51       Ni  0.53935834  0.64631192  0.06829803     1.26060
H52         H  0.50483843  0.59200518  0.03972628     0.40090
O53         O  0.03278649  0.57578102  0.41896088    -0.79860
O54         O  0.15923722  0.71061287  0.42088552    -0.64550
O55         O  0.09656259  0.61669026  0.44059608    -1.11150
C56         C  0.06422408  0.66753533  0.03708750     1.07030
O57         O  0.17868464  0.71171486  0.47995722    -0.77760
O58         O  0.13911716  0.65314670  0.03234543    -0.65340
Ni59       Ni  0.07554411  0.58595546  0.39879203     1.34870
C60         C  0.11420689  0.62188545  0.03665505     0.85760
O61         O  0.14869736  0.65364130  0.38399743    -0.78300
O62         O  0.11883215  0.59571489  0.37983935    -0.88570
C63         C  0.18294897  0.72444547  0.44528203     0.85340
O64         O  0.07473163  0.61769046  0.36277247    -0.66770
O65         O  0.09612357  0.68236629  0.04537082    -0.86060
C66         C  0.07279260  0.64417382  0.37151626     0.86170
C67         C  0.14568971  0.62482340  0.37378794     1.07740
H68         H  0.10085082  0.68911743  0.46259507     0.39540
O69         O  0.10870346  0.67361131  0.47037073    -1.08720
O70         O  0.08645460  0.61272656  0.01949434    -0.65370
Ni71       Ni  0.07137866  0.62927222  0.47632870     1.26350
O72         O  0.09285777  0.66604763  0.39634796    -0.65600
O73         O  0.05093944  0.64600721  0.00982879    -0.77890
C74         C  0.02568155  0.56414585  0.45315570     0.85550
O75         O  0.03215266  0.58492817  0.48048155    -0.65070
Ni76       Ni  0.13685409  0.69393240  0.01312063     1.27450
Ni77       Ni  0.12761564  0.66340025  0.42743874     1.26060
H78         H  0.10873979  0.60797911  0.45484981     0.40090
O79         O  0.99597186  0.56828300  0.25080928    -0.79860
O80         O  0.86431323  0.55427219  0.24911777    -0.64550
O81         O  0.92988706  0.52896880  0.22852158    -1.11150
C82         C  0.95694986  0.60788054  0.12904570     1.07030
O83         O  0.84466174  0.53474759  0.18991685    -0.77760
O84         O  0.88311297  0.51814326  0.13575642    -0.65340
Ni85       Ni  0.95549173  0.52715648  0.26875849     1.34870
C86         C  0.90586682  0.50916941  0.13379966     0.85760
O87         O  0.88090725  0.51214492  0.28661248    -0.78300
O88         O  0.91433704  0.48808095  0.28678578    -0.88570
C89         C  0.84047496  0.54294567  0.22477768     0.85340
O90         O  0.94864669  0.55409205  0.30675284    -0.66770
O91         O  0.92469872  0.59174716  0.12273421    -0.86060
C92         C  0.95068138  0.58239996  0.29822222     0.86170
C93         C  0.88711414  0.48835106  0.29654398     1.07740
H94         H  0.92297734  0.59362184  0.20432490     0.39540
O95         O  0.91448320  0.56971994  0.19715590    -1.08720
O96         O  0.93409019  0.52681360  0.15087465    -0.65370
Ni97       Ni  0.95161788  0.56319904  0.19005521     1.26350
O98         O  0.93198847  0.58309409  0.27142616    -0.65600
O99         O  0.97066139  0.59793169  0.15331976    -0.77890
C100        C  0.00945885  0.56945995  0.21789372     0.85550
O101        O  0.99134799  0.56043490  0.18809848    -0.65070
Ni102      Ni  0.88518778  0.56080603  0.15584630     1.27450
Ni103      Ni  0.89795217  0.54210731  0.24185582     1.26060
H104        H  0.91802710  0.50630911  0.21681481     0.40090
O105        O  0.56493301  0.03218157  0.41934660    -0.79860
O106        O  0.70377811  0.15692714  0.41277953    -0.64550
O107        O  0.61007071  0.09679035  0.39970173    -1.11150
C108        C  0.65368827  0.06149075  0.29684484     1.07030
O109        O  0.70505243  0.17742681  0.35344038    -0.77760
O110        O  0.64766408  0.14147199  0.30460825    -0.65340
Ni111      Ni  0.58030136  0.07508443  0.44316521     1.34870
C112        C  0.61579735  0.11907874  0.30352680     0.85760
O113        O  0.65061183  0.14854515  0.45418747    -0.78300
O114        O  0.59444219  0.11845075  0.46638436    -0.88570
C115        C  0.71733167  0.18099230  0.38754858     0.85340
O116        O  0.61022653  0.06699629  0.47354213    -0.66770
O117        O  0.67124386  0.09423558  0.28926567    -0.86060
C118        C  0.63729311  0.06738045  0.46302236     0.86170
C119        C  0.62362033  0.14523314  0.46981516     1.07740
H120        H  0.67751674  0.09636970  0.37133120     0.39540
O121        O  0.66373295  0.10639355  0.36481829    -1.08720
O122        O  0.60361604  0.09011856  0.32111277    -0.65370
Ni123      Ni  0.61883174  0.07036642  0.36075475     1.26350
O124        O  0.65883880  0.08995339  0.43892147    -0.65600
O125        O  0.63181114  0.04855701  0.32418551    -0.77890
C126        C  0.55516806  0.03167944  0.38547095     0.85550
O127        O  0.57396440  0.03152737  0.35882993    -0.65070
Ni128      Ni  0.68540593  0.13531734  0.32152269     1.27450
Ni129      Ni  0.65681489  0.12647176  0.40931514     1.26060
H130        H  0.60216764  0.11065680  0.38722999     0.40090
O131        O  0.56820357  0.98673593  0.06850408    -0.79860
O132        O  0.55420355  0.85380758  0.08458997    -0.64550
O133        O  0.53148999  0.92267601  0.09878203    -1.11150
C134        C  0.60778438  0.95433086  0.19718610     1.07030
O135        O  0.53628766  0.83674897  0.14579074    -0.77760
O136        O  0.51838161  0.87965278  0.19156713    -0.65340
Ni137      Ni  0.52770389  0.94510028  0.05499821     1.34870
C138        C  0.51329576  0.90544101  0.19339973     0.85760
O139        O  0.51232408  0.86853319  0.04627634    -0.78300
O140        O  0.48860631  0.90222774  0.04259061    -0.88570
C141        C  0.54297001  0.83069084  0.11093892     0.85340
O142        O  0.55311499  0.93451194  0.01876481    -0.66770
O143        O  0.58894946  0.92200067  0.20668349    -0.86060
C144        C  0.58152708  0.93879714  0.02790808     0.86170
C145        C  0.48837989  0.87378867  0.03636152     1.07740
H146        H  0.59447213  0.91390150  0.12357019     0.39540
O147        O  0.57142014  0.90732536  0.13125293    -1.08720
O148        O  0.53391953  0.93389854  0.17599400    -0.65370
Ni149      Ni  0.56781749  0.94695136  0.13350025     1.26350
O150        O  0.58282403  0.92125200  0.05623793    -0.65600
O151        O  0.60347845  0.96737993  0.16704180    -0.77890
C152        C  0.56632023  0.00113309  0.09916515     0.85550
O153        O  0.56709035  0.98847334  0.13139206    -0.65070
Ni154      Ni  0.56062234  0.88004648  0.17611306     1.27450
Ni155      Ni  0.54299597  0.88853504  0.08882865     1.26060
H156        H  0.50991122  0.91206677  0.11270312     0.40090
O157        O  0.45106581  0.02605515  0.10631703    -0.79860
O158        O  0.46882094  0.15632810  0.09499474    -0.64550
O159        O  0.49040100  0.08961449  0.12422237    -1.11150
C160        C  0.40656387  0.06647304  0.21727746     1.07030
O161        O  0.48201069  0.17832654  0.15448848    -0.77760
O162        O  0.49684312  0.14155200  0.21086589    -0.65340
Ni163      Ni  0.49295123  0.06174179  0.08543062     1.34870
C164        C  0.50464071  0.11794164  0.21599293     0.85760
O165        O  0.51419323  0.13865662  0.06597014    -0.78300
O166        O  0.53382030  0.10108725  0.06788726    -0.88570
C167        C  0.47521214  0.18050289  0.11886841     0.85340
O168        O  0.47025383  0.06805528  0.04381565    -0.66770
O169        O  0.42351779  0.09948574  0.22329946    -0.86060
C170        C  0.44300469  0.06822737  0.04904175     0.86170
C171        C  0.53777250  0.13106469  0.06068363     1.07740
H172        H  0.42575282  0.09821003  0.14001941     0.39540
O173        O  0.44845483  0.10664295  0.14934890    -1.08720
O174        O  0.48636388  0.08771564  0.20211516    -0.65370
Ni175      Ni  0.45340252  0.06837595  0.16091655     1.26350
O176        O  0.44155459  0.08816200  0.07479656    -0.65600
O177        O  0.41681656  0.05086320  0.19501615    -0.77890
C178        C  0.45906643  0.01584106  0.13578036     0.85550
O179        O  0.45603937  0.02751128  0.16784750    -0.65070
Ni180      Ni  0.45531906  0.13827355  0.18934152     1.27450
Ni181      Ni  0.47968410  0.12229205  0.10708923     1.26060
H182        H  0.51190247  0.10141954  0.13718831     0.40090
O183        O  0.44813192  0.00226489  0.40202463    -0.79860
O184        O  0.32780573  0.86453508  0.41213077    -0.64550
O185        O  0.41554185  0.93339312  0.37895623    -1.11150
C186        C  0.35333850  0.95728066  0.29459628     1.07030
O187        O  0.31945249  0.84446433  0.35144778    -0.77760
O188        O  0.37232365  0.88299013  0.29571492    -0.65340
Ni189      Ni  0.44796274  0.96029829  0.41564578     1.34870
C190        C  0.40232108  0.90818352  0.28744251     0.85760
O191        O  0.39021395  0.88338473  0.43747074    -0.78300
O192        O  0.44687790  0.91846915  0.42996608    -0.88570
C193        C  0.31036300  0.84118527  0.38757328     0.85340
O194        O  0.41909630  0.95530529  0.45902358    -0.66770
O195        O  0.33982476  0.92480928  0.28597703    -0.86060
C196        C  0.39098884  0.95431013  0.45638307     0.86170
C197        C  0.42073312  0.88978828  0.44058714     1.07740
H198        H  0.34105252  0.92288883  0.36979662     0.39540
O199        O  0.35598644  0.91540009  0.35875944    -1.08720
O200        O  0.41203268  0.93826440  0.30100904    -0.65370
Ni201      Ni  0.39819003  0.95438577  0.34690867     1.26350
O202        O  0.36879005  0.93340282  0.43268707    -0.65600
O203        O  0.37762536  0.97247350  0.31765501    -0.77890
C204        C  0.45283249  0.01504117  0.36806311     0.85550
O205        O  0.43968967  0.99552134  0.33941486    -0.65070
Ni206      Ni  0.33286057  0.88512205  0.31812617     1.27450
Ni207      Ni  0.37237928  0.89961697  0.39831302     1.26060
H208        H  0.42474611  0.92188031  0.36337968     0.40090
O209        O  0.43304594  0.47041957  0.23625483    -0.79860
O210        O  0.30863240  0.46193860  0.25188165    -0.64550
O211        O  0.40012664  0.49728911  0.27071759    -1.11150
C212        C  0.36044339  0.41353105  0.36391271     1.07030
O213        O  0.30489863  0.47615926  0.31345669    -0.77760
O214        O  0.36630659  0.50095624  0.35799502    -0.65340
Ni215      Ni  0.42920192  0.51017572  0.22780445     1.34870
C216        C  0.39677797  0.50714184  0.36290089     0.85760
O217        O  0.36506690  0.51552507  0.21897257    -0.78300
O218        O  0.42212227  0.54804462  0.22183247    -0.88570
C219        C  0.29433618  0.47050830  0.27804737     0.85340
O220        O  0.39535914  0.48656301  0.19008252    -0.66770
O221        O  0.34459847  0.42990107  0.37375272    -0.86060
C222        C  0.37786035  0.45450289  0.19400501     0.86170
C223        C  0.39336097  0.54382944  0.21201002     1.07740
H224        H  0.33124153  0.42448276  0.28968506     0.39540
O225        O  0.34575196  0.44800220  0.29837649    -1.08720
O226        O  0.40636424  0.48765438  0.34678754    -0.65370
Ni227      Ni  0.39040788  0.45768806  0.30115900     1.26350
O228        O  0.35575168  0.44435789  0.22169597    -0.65600
O229        O  0.37679204  0.41894535  0.33209213    -0.77890
C230        C  0.44919922  0.47165649  0.26545930     0.85550
O231        O  0.43472849  0.46513067  0.29830679    -0.65070
Ni232      Ni  0.32712094  0.45525267  0.34365734     1.27450
Ni233      Ni  0.35476120  0.47968886  0.25810110     1.26060
H234        H  0.40726225  0.51744944  0.28678163     0.40090
O235        O  0.48571733  0.45303639  0.08547223    -0.79860
O236        O  0.46427312  0.31503842  0.08488523    -0.64550
O237        O  0.50265584  0.40900492  0.06094298    -1.11150
C238        C  0.42026051  0.36645966  0.46861698     1.07030
O239        O  0.47989965  0.31070190  0.02380575    -0.77760
O240        O  0.50609278  0.37137475  0.47491961    -0.65340
Ni241      Ni  0.51755832  0.44123191  0.10137075     1.34870
C242        C  0.51292261  0.40249211  0.46818674     0.85760
O243        O  0.51455406  0.37140116  0.11853524    -0.78300
O244        O  0.54998414  0.42874932  0.11430724    -0.88570
C245        C  0.47254146  0.29978664  0.05933053     0.85340
O246        O  0.48728553  0.41027159  0.14038899    -0.66770
O247        O  0.43622088  0.34998967  0.45998533    -0.86060
C248        C  0.45614884  0.39065579  0.13397714     0.86170
C249        C  0.54288568  0.39880523  0.12575021     1.07740
H250        H  0.43041781  0.33995189  0.04409027     0.39540
O251        O  0.45383031  0.35399091  0.03529243    -1.08720
O252        O  0.49404609  0.41303552  0.48333651    -0.65370
Ni253      Ni  0.46435835  0.39980601  0.02906866     1.26350
O254        O  0.44825764  0.36592673  0.10987390    -0.65600
O255        O  0.42687824  0.38566602  0.49813835    -0.77890
C256        C  0.49303407  0.46460799  0.05161699     0.85550
O257        O  0.47304990  0.44616333  0.02607622    -0.65070
Ni258      Ni  0.46054044  0.33290946  0.49178470     1.27450
Ni259      Ni  0.48316516  0.36254777  0.07662260     1.26060
H260        H  0.52234751  0.41456701  0.04477170     0.40090
O261        O  0.02529122  0.46028255  0.25537778    -0.79860
O262        O  0.15298584  0.46572910  0.24763893    -0.64550
O263        O  0.08913546  0.49260701  0.23003141    -1.11150
C264        C  0.05876569  0.41600148  0.13072101     1.07030
O265        O  0.17303340  0.47998267  0.18681041    -0.77760
O266        O  0.13608867  0.50487601  0.14246289    -0.65340
Ni267      Ni  0.06598021  0.49753309  0.27381881     1.34870
C268        C  0.11081108  0.50926687  0.13624182     0.85760
O269        O  0.14097718  0.51185186  0.28331415    -0.78300
O270        O  0.10762899  0.53537690  0.28940875    -0.88570
C271        C  0.17641771  0.47355057  0.22253579     0.85340
O272        O  0.06959373  0.46770861  0.31003989    -0.66770
O273        O  0.09072659  0.43483902  0.12133773    -0.86060
C274        C  0.06851181  0.43988756  0.30058944     0.86170
C275        C  0.13630616  0.53706760  0.29167697     1.07740
H276        H  0.09624295  0.42613541  0.20698362     0.39540
O277        O  0.10342437  0.44963445  0.19913070    -1.08720
O278        O  0.08143552  0.48773872  0.15097212    -0.65370
Ni279      Ni  0.06547941  0.45456438  0.19512149     1.26350
O280        O  0.08788205  0.43986873  0.27333234    -0.65600
O281        O  0.04657597  0.41678633  0.16348990    -0.77890
C282        C  0.02033403  0.47026413  0.22353913     0.85550
O283        O  0.02452370  0.45661832  0.19376115    -0.65070
Ni284      Ni  0.13143311  0.45948898  0.15458660     1.27450
Ni285      Ni  0.12122304  0.47947702  0.24125420     1.26060
H286        H  0.10041760  0.51435157  0.21601460     0.40090
O287        O  0.99714846  0.42608880  0.45003006    -0.79860
O288        O  0.86169882  0.31738024  0.42696007    -0.64550
O289        O  0.93230684  0.40096886  0.46498239    -1.11150
C290        C  0.93942340  0.33680820  0.05934921     1.07030
O291        O  0.83658225  0.30434327  0.48615134    -0.77760
O292        O  0.87288034  0.36173103  0.03636854    -0.65340
Ni293      Ni  0.96345131  0.43505560  0.43095651     1.34870
C294        C  0.89914783  0.38914904  0.04829272     0.85760
O295        O  0.88871136  0.38395517  0.40368468    -0.78300
O296        O  0.92705973  0.44052692  0.41311034    -0.88570
C297        C  0.83618455  0.29895975  0.44930528     0.85340
O298        O  0.95873765  0.40760711  0.38688000    -0.66770
O299        O  0.90793995  0.32860658  0.06361847    -0.86060
C300        C  0.95416883  0.37736266  0.38817629     0.86170
C301        C  0.89857265  0.41621050  0.40066541     1.07740
H302        H  0.91062129  0.32015075  0.47372508     0.39540
O303        O  0.90611600  0.33775134  0.48375809    -1.08720
O304        O  0.92862802  0.39282865  0.04173295    -0.65370
Ni305      Ni  0.94623060  0.37658314  0.49821668     1.26350
O306        O  0.93106376  0.35435665  0.41063131    -0.65600
O307        O  0.95548953  0.34814192  0.02792563    -0.77890
C308        C  0.00533733  0.43580609  0.48440414     0.85550
O309        O  0.98849272  0.41528703  0.51138142    -0.65070
Ni310      Ni  0.87302769  0.31868538  0.02408945     1.27450
Ni311      Ni  0.89781467  0.36013462  0.44334123     1.26060
H312        H  0.92166828  0.41157486  0.47939341     0.40090
C313        C  0.97210531  0.37917266  0.10458652     0.24630
C314        C  0.96266012  0.34605503  0.09120614    -0.23480
C315        C  0.98803818  0.33665525  0.08824899     0.19530
C316        C  0.02214770  0.36097542  0.09631733     0.24570
C317        C  0.03157531  0.39558746  0.10399609    -0.23430
C318        C  0.00609431  0.40462771  0.10502301     0.19470
F319        F  0.01398682  0.43762892  0.11318565    -0.13380
F320        F  0.94850315  0.38862067  0.11085089    -0.15750
F321        F  0.04565268  0.35079876  0.09714305    -0.15750
F322        F  0.98004328  0.30486387  0.07477888    -0.13380
C323        C  0.04183443  0.40239918  0.35943161     0.24630
C324        C  0.04092218  0.40753027  0.31953173    -0.23480
C325        C  0.00896595  0.38981832  0.30176332     0.19530
C326        C  0.97858294  0.37345976  0.32428987     0.24570
C327        C  0.97949363  0.37246767  0.36489928    -0.23430
C328        C  0.01144533  0.38378047  0.38155333     0.19470
F329        F  0.01350890  0.38132709  0.42033833    -0.13380
F330        F  0.07203312  0.41862208  0.37770162    -0.15750
F331        F  0.94846890  0.36268798  0.30683493    -0.15750
F332        F  0.00695067  0.39248445  0.26297787    -0.13380
C333        C  0.26530074  0.48517724  0.22672829     0.24630
C334        C  0.26616526  0.47555725  0.26543407    -0.23480
C335        C  0.23860199  0.46788807  0.29026482     0.19530
C336        C  0.21002417  0.46798422  0.27644159     0.24570
C337        C  0.20823617  0.47593067  0.23707045    -0.23430
C338        C  0.23670141  0.48532523  0.21274047     0.19470
F339        F  0.23683573  0.49416476  0.17524134    -0.13380
F340        F  0.29217413  0.49425272  0.20207909    -0.15750
F341        F  0.18373586  0.45922849  0.30190490    -0.15750
F342        F  0.23842169  0.45841863  0.32753542    -0.13380
C343        C  0.35890428  0.39151470  0.43081471     0.24630
C344        C  0.36407082  0.39006502  0.39097689    -0.23480
C345        C  0.37941712  0.37092644  0.37756136     0.19530
C346        C  0.39528374  0.35988427  0.40321536     0.24570
C347        C  0.39490283  0.36656621  0.44270484    -0.23430
C348        C  0.37369708  0.37927808  0.45652794     0.19470
F349        F  0.36957986  0.38265209  0.49502092    -0.13380
F350        F  0.34242702  0.40761990  0.44505181    -0.15750
F351        F  0.41366026  0.34582952  0.38890701    -0.15750
F352        F  0.38195995  0.36566551  0.33920617    -0.13380
C353        C  0.37752965  0.39714315  0.17294597     0.24630
C354        C  0.39229585  0.43379719  0.17396793    -0.23840
C355        C  0.42641731  0.45345321  0.16005429     0.19530
C356        C  0.44644378  0.43854109  0.15494511     0.24570
C357        C  0.43215086  0.40258824  0.14964938    -0.23430
C358        C  0.39670874  0.38173165  0.15819181     0.19470
F359        F  0.38131403  0.34676149  0.15492139    -0.13380
F360        F  0.34488740  0.37645024  0.18543124    -0.15750
F361        F  0.48064825  0.46050290  0.15588852    -0.15750
F362        F  0.44297045  0.48861646  0.15677518    -0.13380
C363        C  0.49612863  0.24475424  0.11948195     0.24630
C364        C  0.47551841  0.21169986  0.10362593    -0.23480
C365        C  0.45518855  0.20840593  0.07172884     0.19530
C366        C  0.45546197  0.23738041  0.05618408     0.24570
C367        C  0.47564215  0.27014982  0.07236544    -0.23430
C368        C  0.49605074  0.27370418  0.10406529     0.19470
F369        F  0.51609767  0.30534763  0.11995449    -0.13380
F370        F  0.51671348  0.24918153  0.14940917    -0.15750
F371        F  0.43462522  0.23312854  0.02657692    -0.15750
F372        F  0.43394802  0.17682937  0.05632842    -0.13380
C373        C  0.33866028  0.98002729  0.23723851     0.24630
C374        C  0.34366958  0.98097765  0.27691379    -0.23480
C375        C  0.35316540  0.01239589  0.29686931     0.19530
C376        C  0.37024885  0.04379705  0.27663864     0.24570
C377        C  0.37372285  0.04286280  0.23661219    -0.23430
C378        C  0.35215356  0.01142005  0.21715991     0.19470
F379        F  0.35147358  0.01069064  0.17790941    -0.13380
F380        F  0.32680304  0.94995639  0.21733069    -0.15750
F381        F  0.38836570  0.07389575  0.29626633    -0.15750
F382        F  0.35355406  0.01320164  0.33613913    -0.13380
C383        C  0.39453855  0.00740986  0.04332909     0.24630
C384        C  0.41318953  0.04114352  0.02722489    -0.23480
C385        C  0.41330839  0.04396966  0.98673558     0.19530
C386        C  0.39924433  0.01407844  0.46314816     0.24570
C387        C  0.38717086  0.98083780  0.47943674    -0.23430
C388        C  0.38330198  0.97773945  0.01985916     0.19470
F389        F  0.37109640  0.94632817  0.53702843    -0.13380
F390        F  0.39039590  0.00313504  0.08221442    -0.15750
F391        F  0.40109140  0.01811169  0.42420057    -0.15750
F392        F  0.42984029  0.07582050  0.96983708    -0.13380
C393        C  0.46854668  0.88274345  0.25024134     0.24630
C394        C  0.48265948  0.90321780  0.21627661    -0.23480
C395        C  0.46792876  0.92322583  0.20509506     0.19530
C396        C  0.44130246  0.92355805  0.22714993     0.24570
C397        C  0.42759974  0.90362479  0.26134012    -0.23430
C398        C  0.44169701  0.88302662  0.27230586     0.19470
F399        F  0.43072149  0.86443403  0.30570670    -0.13380
F400        F  0.48186976  0.86362000  0.26337247    -0.15750
F401        F  0.42883564  0.94373147  0.21488523    -0.15750
F402        F  0.47920363  0.94262315  0.17225911    -0.13380
C403        C  0.47049114  0.85076045  0.47306683     0.24630
C404        C  0.46129594  0.84864630  0.01222965    -0.23480
C405        C  0.42851677  0.84219957  0.02218682     0.19530
C406        C  0.41136579  0.85100099  0.99578889     0.24570
C407        C  0.42663482  0.86429600  0.45964146    -0.23430
C408        C  0.45384596  0.86014945  0.44667798     0.19470
F409        F  0.46731871  0.87025672  0.41044258    -0.13380
F410        F  0.50068010  0.85351650  0.46243002    -0.15750
F411        F  0.38366451  0.85268510  0.00802864    -0.15750
F412        F  0.41777995  0.83677861  0.05976553    -0.13380
C413        C  0.54805868  0.03587041  0.13423313     0.24630
C414        C  0.54867927  0.02034433  0.09911257    -0.23480
C415        C  0.52003057  0.00576126  0.07581819     0.19530
C416        C  0.48891857  0.99747622  0.09211466     0.24570
C417        C  0.48718982  0.01002645  0.12897637    -0.23430
C418        C  0.51716727  0.02969563  0.14985279     0.19470
F419        F  0.51678213  0.04346400  0.18482875    -0.13380
F420        F  0.57641915  0.05216054  0.15588959    -0.15750
F421        F  0.46058285  0.97966630  0.07061132    -0.15750
F422        F  0.52107061  0.99457533  0.03946068    -0.13380
C423        C  0.77857894  0.22653891  0.38156922     0.24630
C424        C  0.74664515  0.21408365  0.39964905    -0.23480
C425        C  0.74383076  0.23064959  0.43306948     0.19530
C426        C  0.77269106  0.25879115  0.44879477     0.24570
C427        C  0.80501966  0.27068955  0.43153882    -0.23430
C428        C  0.80755090  0.25452161  0.39735766     0.19470
F429        F  0.83832447  0.26445666  0.38032318    -0.13380
F430        F  0.78205834  0.21010667  0.35014840    -0.15750
F431        F  0.76895569  0.27424198  0.48096645    -0.15750
F432        F  0.71305208  0.21915411  0.45085123    -0.13380
C433        C  0.65526462  0.01420089  0.20874148     0.24630
C434        C  0.63379109  0.97991961  0.22283595    -0.23480
C435        C  0.63153848  0.97382304  0.26260549     0.19530
C436        C  0.64370348  0.00188177  0.28762623     0.24570
C437        C  0.65652657  0.03583247  0.27274467    -0.23430
C438        C  0.66562444  0.04220496  0.23359616     0.19470
F439        F  0.68055002  0.07482271  0.21867799    -0.13380
F440        F  0.66199816  0.02083248  0.17027674    -0.15750
F441        F  0.63907417  0.99543761  0.32627760    -0.15750
F442        F  0.61386746  0.94112167  0.27729260    -0.13380
C443        C  0.64440321  0.03260203  0.01564755     0.24630
C444        C  0.63994665  0.03700581  0.47633214    -0.23480
C445        C  0.62566559  0.00734718  0.45272057     0.19530
C446        C  0.61136087  0.97389996  0.46898008     0.24570
C447        C  0.61188394  0.96921687  0.00921968    -0.23430
C448        C  0.63169412  0.99906548  0.03160346     0.19470
F449        F  0.63370894  0.99583330  0.07030769    -0.13380
F450        F  0.65765528  0.06043390  0.03948801    -0.15750
F451        F  0.59278875  0.94599267  0.44618733    -0.15750
F452        F  0.62075067  0.01039929  0.41470282    -0.13380
C453        C  0.52079192  0.05972063  0.40541341     0.24630
C454        C  0.53399112  0.04687941  0.37631604    -0.23480
C455        C  0.52554010  0.04831092  0.33730100     0.19530
C456        C  0.49944097  0.05515558  0.32994485     0.24570
C457        C  0.47851331  0.05198036  0.36163246    -0.23430
C458        C  0.49586515  0.06761715  0.39543355     0.19470
F459        F  0.48010519  0.07580799  0.42376847    -0.13380
F460        F  0.52716112  0.05938765  0.44341862    -0.15750
F461        F  0.48741767  0.05101937  0.29356465    -0.15750
F462        F  0.53881857  0.03888346  0.30726274    -0.13380
C463        C  0.58945987  0.12210127  0.24005501     0.24630
C464        C  0.59113169  0.12555638  0.28063998    -0.23480
C465        C  0.56563553  0.13012520  0.29934505     0.19530
C466        C  0.53894500  0.13007983  0.27841890     0.24570
C467        C  0.53631666  0.12481203  0.23800284    -0.23430
C468        C  0.56260548  0.12157506  0.21924780     0.19470
F469        F  0.56206807  0.11722922  0.18038921    -0.13380
F470        F  0.61304404  0.11745031  0.22050078    -0.15750
F471        F  0.51438681  0.13294540  0.29819226    -0.15750
F472        F  0.56577304  0.13332541  0.33838742    -0.13380
C473        C  0.60143962  0.18273814  0.48458055     0.24630
C474        C  0.62475783  0.17228602  0.49469335    -0.23480
C475        C  0.62798034  0.16693744  0.03383907     0.19530
C476        C  0.60023576  0.15800577  0.05875846     0.24570
C477        C  0.57098006  0.15696184  0.04452361    -0.23430
C478        C  0.57323657  0.17357928  0.50902234     0.19470
F479        F  0.54608353  0.17479152  0.49545847    -0.13380
F480        F  0.60036429  0.19154382  0.44736224    -0.15750
F481        F  0.59966621  0.14503331  0.09435959    -0.15750
F482        F  0.65277894  0.16060244  0.04497088    -0.13380
C483        C  0.89566051  0.47311062  0.07131567     0.24630
C484        C  0.89995114  0.47663028  0.11182633    -0.23480
C485        C  0.90139595  0.44956367  0.13115182     0.19530
C486        C  0.89879728  0.42043810  0.11107403     0.24570
C487        C  0.89634588  0.41768907  0.07036350    -0.23430
C488        C  0.89429616  0.44447138  0.05097017     0.19470
F489        F  0.89169022  0.44340424  0.01194002    -0.13380
F490        F  0.89434582  0.49828941  0.05098130    -0.15750
F491        F  0.89819413  0.39453897  0.13193815    -0.15750
F492        F  0.90522150  0.45116943  0.17003529    -0.13380
C493        C  0.86896006  0.47354108  0.36277245     0.24630
C494        C  0.86481603  0.46218086  0.32442497    -0.23480
C495        C  0.85700654  0.42813608  0.31644754     0.19530
C496        C  0.86381397  0.41002486  0.34402812     0.24570
C497        C  0.87742882  0.42606630  0.37941185    -0.23430
C498        C  0.87637452  0.45587082  0.39029490     0.19470
F499        F  0.88686518  0.47019277  0.42568600    -0.13380
F500        F  0.87419604  0.50560285  0.37126332    -0.15750
F501        F  0.86282553  0.38012753  0.33368171    -0.15750
F502        F  0.85090243  0.41616377  0.27961099    -0.13380
C503        C  0.04894757  0.55926915  0.18251966     0.24630
C504        C  0.04374431  0.57381066  0.21603866    -0.23480
C505        C  0.05044884  0.56286755  0.25076392     0.19530
C506        C  0.03676500  0.52721592  0.25434401     0.24570
C507        C  0.02983427  0.50686562  0.22048735    -0.23430
C508        C  0.03796356  0.52391475  0.18409456     0.19470
F509        F  0.03240845  0.50626551  0.15050758    -0.13380
F510        F  0.05242183  0.57467546  0.14768778    -0.15750
F511        F  0.02814241  0.51273826  0.29027256    -0.15750
F512        F  0.05547584  0.58190840  0.28327754    -0.13380
C513        C  0.24654919  0.76626502  0.45167943     0.24630
C514        C  0.21620430  0.75433917  0.43124855    -0.23480
C515        C  0.21787394  0.77084816  0.39573151     0.19530
C516        C  0.24872989  0.79788916  0.38101930     0.24570
C517        C  0.27879539  0.80986269  0.40149198    -0.23430
C518        C  0.27744391  0.79395418  0.43710224     0.19470
F519        F  0.30617972  0.80500949  0.45761798    -0.13380
F520        F  0.24651328  0.75106459  0.48554853    -0.15750
F521        F  0.24883169  0.81365711  0.34752376    -0.15750
F522        F  0.18942245  0.76155725  0.37528288    -0.13380
C523        C  0.00699677  0.66080939  0.04496719     0.24630
C524        C  0.03942091  0.67197752  0.06071964    -0.23480
C525        C  0.04302567  0.67598869  0.10063931     0.19530
C526        C  0.01385973  0.66063586  0.12419916     0.24570
C527        C  0.98163011  0.63919727  0.10754798    -0.23430
C528        C  0.97784288  0.64292786  0.06831928     0.19470
F529        F  0.94688141  0.62522797  0.05184372    -0.13380
F530        F  0.00331976  0.66140947  0.00616228    -0.15750
F531        F  0.01759111  0.66150683  0.16313471    -0.15750
F532        F  0.07403985  0.68946050  0.11685524    -0.13380
C533        C  0.98078832  0.61414090  0.35787039     0.24630
C534        C  0.97895497  0.61379546  0.31720255    -0.23480
C535        C  0.00970092  0.63405907  0.29610616     0.19530
C536        C  0.04147416  0.64863373  0.31446139     0.24570
C537        C  0.04329521  0.64550317  0.35475016    -0.23430
C538        C  0.01244875  0.63047273  0.37639580     0.19470
F539        F  0.01284053  0.62710797  0.41532734    -0.13380
F540        F  0.95199146  0.59488798  0.37949387    -0.15750
F541        F  0.07042505  0.66258907  0.29235115    -0.15750
F542        F  0.00927501  0.63550797  0.25696496    -0.13380
C543        C  0.00019357  0.51248248  0.49441969     0.24630
C544        C  0.02267424  0.53137894  0.46391417    -0.23480
C545        C  0.04704553  0.52272857  0.45093137     0.19530
C546        C  0.04653746  0.49372098  0.46537078     0.24570
C547        C  0.02090266  0.47231974  0.49152510    -0.23430
C548        C  0.99990956  0.48348180  0.50895967     0.19470
F549        F  0.97613666  0.46397630  0.53635869    -0.13380
F550        F  0.97819429  0.52184095  0.50959861    -0.15750
F551        F  0.06776497  0.48361383  0.44956907    -0.15750
F552        F  0.07129263  0.54151257  0.42413544    -0.13380
C553        C  0.08776807  0.55936517  0.06288575     0.24630
C554        C  0.11571709  0.59394897  0.06196483    -0.23480
C555        C  0.14346729  0.60007278  0.08547682     0.19530
C556        C  0.14268284  0.57312521  0.10891814     0.24570
C557        C  0.11414064  0.53883973  0.10995049    -0.23430
C558        C  0.08724248  0.53277947  0.08556050     0.19470
F559        F  0.06008009  0.50027920  0.08263403    -0.13380
F560        F  0.06003080  0.55064512  0.04161479    -0.15750
F561        F  0.16968088  0.58096377  0.13135639    -0.15750
F562        F  0.17133756  0.63229038  0.08638279    -0.13380
C563        C  0.17223233  0.62759443  0.31196083     0.24630
C564        C  0.17290739  0.62367834  0.35193528    -0.23480
C565        C  0.18146527  0.59954753  0.36591039     0.19530
C566        C  0.17586284  0.57160285  0.34253197     0.24570
C567        C  0.16419950  0.57001087  0.30512687    -0.23430
C568        C  0.16738754  0.60017641  0.28824620     0.19470
F569        F  0.15793546  0.59964479  0.25115108    -0.13380
F570        F  0.16656793  0.65243726  0.29755703    -0.15750
F571        F  0.17456562  0.54331755  0.35871458    -0.15750
F572        F  0.18532830  0.59751108  0.40442632    -0.13380
C573        C  0.52705154  0.78430483  0.06130660     0.24630
C574        C  0.53683347  0.79601201  0.09940100    -0.23480
C575        C  0.54462553  0.77638993  0.12412221     0.19530
C576        C  0.54481014  0.74689751  0.11038045     0.24570
C577        C  0.53708868  0.73626527  0.07137500    -0.23430
C578        C  0.52714607  0.75482864  0.04747001     0.19470
F579        F  0.51847973  0.74525434  0.01024602    -0.13380
F580        F  0.51805019  0.80194198  0.03697006    -0.15750
F581        F  0.55384231  0.72963916  0.13522109    -0.15750
F582        F  0.55430205  0.78700315  0.16089132    -0.13380
C583        C  0.57082078  0.52449801  0.99235587     0.24630
C584        C  0.58701194  0.54558037  0.02392431    -0.23480
C585        C  0.58741813  0.52719626  0.05605713     0.19530
C586        C  0.55533066  0.50043938  0.06787194     0.24570
C587        C  0.52893316  0.48670245  0.04019963    -0.23430
C588        C  0.53807334  0.49677865  0.00090702     0.19470
F589        F  0.51414404  0.48624601  0.97344660    -0.13380
F590        F  0.57788412  0.53911767  0.95665022    -0.15750
F591        F  0.54921573  0.49506075  0.10647901    -0.15750
F592        F  0.61187545  0.54334710  0.08258942    -0.13380
C593        C  0.45932830  0.55350837  0.44584431     0.24630
C594        C  0.47858948  0.58887125  0.43415875    -0.23480
C595        C  0.46813515  0.59755786  0.39967775     0.19530
C596        C  0.44068409  0.57179097  0.37741996     0.24570
C597        C  0.42225941  0.53637643  0.38893910    -0.23430
C598        C  0.43215775  0.52807576  0.42377560     0.19470
F599        F  0.41569500  0.49465866  0.43638620    -0.13380
F600        F  0.46689480  0.54311198  0.47910098    -0.15750
F601        F  0.43322784  0.58130721  0.34351221    -0.15750
F602        F  0.48557571  0.63068539  0.38626031    -0.13380
C603        C  0.45198287  0.61485150  0.16638835     0.24630
C604        C  0.45158236  0.59424243  0.13524795    -0.23480
C605        C  0.42003468  0.56696921  0.12295382     0.19530
C606        C  0.39096151  0.55620514  0.14639333     0.24570
C607        C  0.39527111  0.56930268  0.18404798    -0.23430
C608        C  0.42265329  0.60312961  0.18981410     0.19470
F609        F  0.42501298  0.61915333  0.22402985    -0.13380
F610        F  0.48140394  0.64325441  0.17713553    -0.15750
F611        F  0.36195667  0.52655258  0.13735227    -0.15750
F612        F  0.41797687  0.54903300  0.09029572    -0.13380
C613        C  0.79809498  0.53376318  0.27796576     0.24630
C614        C  0.80726943  0.53862846  0.23826492    -0.23480
C615        C  0.78584816  0.54225090  0.21253815     0.19530
C616        C  0.75703734  0.54300520  0.22631904     0.24570
C617        C  0.74880168  0.54010071  0.26640521    -0.23430
C618        C  0.76929032  0.53447933  0.29183878     0.19470
F619        F  0.76217168  0.53060850  0.33041534    -0.13380
F620        F  0.81729744  0.52868356  0.30370429    -0.15750
F621        F  0.73782960  0.54757676  0.20012804    -0.15750
F622        F  0.79370249  0.54696088  0.17413370    -0.13380
C623        C  0.67416322  0.67233484  0.38283010     0.24630
C624        C  0.68208515  0.64862494  0.40050234    -0.23480
C625        C  0.67964743  0.64568580  0.44066605     0.19530
C626        C  0.66116040  0.65818509  0.46086940     0.24570
C627        C  0.64276547  0.67075373  0.44034425    -0.23430
C628        C  0.65251089  0.68155887  0.40214540     0.19470
F629        F  0.63754365  0.69618412  0.38218640    -0.13380
F630        F  0.68052370  0.67954657  0.34443753    -0.15750
F631        F  0.65588200  0.65193133  0.49953820    -0.15750
F632        F  0.68940811  0.62556217  0.45932686    -0.13380
C633        C  0.63300356  0.62858949  0.20346563     0.24630
C634        C  0.64600540  0.60861560  0.18633719    -0.23480
C635        C  0.64570701  0.60683594  0.14568442     0.19530
C636        C  0.62862568  0.61984510  0.12368851     0.24570
C637        C  0.60948402  0.63317470  0.14182630    -0.23430
C638        C  0.61351248  0.63906524  0.18193036     0.19470
F639        F  0.59645986  0.65262746  0.20083420    -0.13380
F640        F  0.63642488  0.63527241  0.24189318    -0.15750
F641        F  0.62819936  0.61635974  0.08473375    -0.15750
F642        F  0.65961406  0.58975560  0.12749366    -0.13380
C643        C  0.53309897  0.51169746  0.30390409     0.24630
C644        C  0.54419479  0.54627229  0.29359415    -0.23480
C645        C  0.52694505  0.55385257  0.26612928     0.19530
C646        C  0.49848116  0.52706983  0.24979705     0.24570
C647        C  0.48503209  0.49326611  0.26452703    -0.23430
C648        C  0.50299490  0.48538270  0.29038968     0.19470
F649        F  0.49092562  0.45231050  0.30288846    -0.13380
F650        F  0.55335703  0.50279414  0.32235312    -0.15750
F651        F  0.48380785  0.53455633  0.22065854    -0.15750
F652        F  0.53975197  0.58669554  0.25242283    -0.13380
C653        C  0.60338167  0.46261219  0.42020175     0.24630
C654        C  0.59859966  0.48795064  0.40101011    -0.23480
C655        C  0.56496223  0.48220057  0.40306070     0.19530
C656        C  0.53757181  0.45220977  0.42011143     0.24570
C657        C  0.54243800  0.42850372  0.44179565    -0.23430
C658        C  0.57603007  0.43399367  0.44111463     0.19470
F659        F  0.58274267  0.41233770  0.46148201    -0.13380
F660        F  0.63480579  0.46618939  0.42024321    -0.15750
F661        F  0.50564041  0.44686837  0.41611750    -0.15750
F662        F  0.55827352  0.50686146  0.39092296    -0.13380
C663        C  0.60113357  0.42290461  0.14660744     0.24630
C664        C  0.56648694  0.39848604  0.15365147    -0.23480
C665        C  0.55415980  0.39295965  0.19194321     0.19530
C666        C  0.57122273  0.41933435  0.21878841     0.24570
C667        C  0.60153466  0.44965702  0.20760965    -0.23430
C668        C  0.61846193  0.44946742  0.17330620     0.19470
F669        F  0.64876304  0.47749080  0.16274114    -0.13380
F670        F  0.61465937  0.42654715  0.11037770    -0.15750
F671        F  0.55572546  0.41762486  0.25339589    -0.15750
F672        F  0.52186015  0.36735293  0.20046102    -0.13380
O673        O  0.59569533  0.57334846  0.76511137    -0.79860
O674        O  0.70442779  0.55231976  0.75674499    -0.64550
O675        O  0.61778973  0.53344958  0.78732343    -1.11150
C676        C  0.67665252  0.61846981  0.87710109     1.07030
O677        O  0.71138015  0.54027385  0.81759007    -0.77760
O678        O  0.65657060  0.52415213  0.87101838    -0.65340
Ni679      Ni  0.58770477  0.52935656  0.74894072     1.34870
C680        C  0.62686484  0.51975892  0.87820680     0.85760
O681        O  0.64100471  0.50668454  0.73006504    -0.78300
O682        O  0.58440529  0.48670431  0.73487247    -0.88570
C683        C  0.72018887  0.54469873  0.78122778     0.85340
O684        O  0.61727251  0.55036383  0.70557043    -0.66770
O685        O  0.68898579  0.59866202  0.88499363    -0.86060
C686        C  0.64422360  0.57889852  0.70907458     0.86170
C687        C  0.60972150  0.48272770  0.72591545     1.07740
H688        H  0.69288114  0.59852931  0.79902341     0.39540
O689        O  0.67695984  0.57581151  0.80940812    -1.08720
O690        O  0.61969539  0.54201899  0.86541527    -0.65370
Ni691      Ni  0.63532862  0.57302315  0.82030262     1.26350
O692        O  0.66549753  0.58138438  0.73445379    -0.65600
O693        O  0.65593443  0.61195824  0.85035521    -0.77890
C694        C  0.57948895  0.56995874  0.79599838     0.85550
O695        O  0.59378144  0.57236736  0.82733023    -0.65070
Ni696      Ni  0.69727511  0.56705348  0.85135957     1.27450
Ni697      Ni  0.66027315  0.54295830  0.76911191     1.26060
H698        H  0.60808690  0.51218711  0.80211393     0.40090
O699        O  0.56386662  0.56982309  0.56884009    -0.79860
O700        O  0.55104164  0.69218202  0.57891097    -0.64550
O701        O  0.52682475  0.60172185  0.55149244    -1.11150
C702        C  0.60895466  0.66206642  0.95652335     1.07030
O703        O  0.53383365  0.69693745  0.52028600    -0.77760
O704        O  0.52051284  0.64706372  0.96016173    -0.65340
Ni705      Ni  0.52377901  0.57009671  0.58880485     1.34870
C706        C  0.51030015  0.61451064  0.95712411     0.85760
O707        O  0.50821589  0.62988310  0.61198473    -0.78300
O708        O  0.48488323  0.57183702  0.60863037    -0.88570
C709        C  0.54102947  0.70715098  0.55578543     0.85340
O710        O  0.55102001  0.60064054  0.62865860    -0.66770
O711        O  0.59482794  0.68064030  0.95167362    -0.86060
C712        C  0.57822721  0.62894839  0.62223971     0.86170
C713        C  0.48336867  0.59900651  0.61755322     1.07740
H714        H  0.59115289  0.67511854  0.53215956     0.39540
O715        O  0.56791416  0.66082770  0.52406827    -1.08720
O716        O  0.52615672  0.60181245  0.97398120    -0.65370
Ni717      Ni  0.56083663  0.61697463  0.51288323     1.26350
O718        O  0.57852747  0.65076116  0.59792456    -0.65600
O719        O  0.59551923  0.63446472  0.97629420    -0.77890
C720        C  0.57026234  0.56603996  0.53352526     0.85550
O721        O  0.55738433  0.57434617  0.50673549    -0.65070
Ni722      Ni  0.56149047  0.68568295  0.98482416     1.27450
Ni723      Ni  0.53936719  0.64631565  0.56827529     1.26060
H724        H  0.50484135  0.59200643  0.53971297     0.40090
O725        O  0.03277974  0.57576420  0.91896957    -0.79860
O726        O  0.15923541  0.71059861  0.92094581    -0.64550
O727        O  0.09655166  0.61667102  0.94062017    -1.11150
C728        C  0.06425419  0.66756570  0.53706439     1.07030
O729        O  0.17866061  0.71168020  0.98002521    -0.77760
O730        O  0.13914811  0.65317588  0.53229570    -0.65340
Ni731      Ni  0.07554129  0.58594534  0.89880700     1.34870
C732        C  0.11423353  0.62191769  0.53662083     0.85760
O733        O  0.14869989  0.65363497  0.88403784    -0.78300
O734        O  0.11883200  0.59570976  0.87985872    -0.88570
C735        C  0.18293561  0.72442514  0.94535799     0.85340
O736        O  0.07473310  0.61768704  0.86279438    -0.66770
O737        O  0.09615669  0.68239656  0.54533741    -0.86060
C738        C  0.07279584  0.64417073  0.87154167     0.86170
C739        C  0.14569042  0.62481913  0.87381506     1.07740
H740        H  0.10083476  0.68909188  0.96263277     0.39540
O741        O  0.10868675  0.67358537  0.97040906    -1.08720
O742        O  0.08647704  0.61276148  0.51947178    -0.65370
Ni743      Ni  0.07136128  0.62924547  0.97635313     1.26350
O744        O  0.09285850  0.66603987  0.89637949    -0.65600
O745        O  0.05096391  0.64604083  0.50980407    -0.77890
C746        C  0.02567002  0.56412341  0.95316202     0.85550
O747        O  0.03213387  0.58490135  0.98049102    -0.65070
Ni748      Ni  0.13688238  0.69396284  0.51307187     1.27450
Ni749      Ni  0.12760891  0.66338392  0.92747843     1.26060
H750        H  0.10872523  0.60795563  0.95487385     0.40090
O751        O  0.99598149  0.56828739  0.75080917    -0.79860
O752        O  0.86432956  0.55429009  0.74911351    -0.64550
O753        O  0.92989505  0.52897517  0.72852259    -1.11150
C754        C  0.95697376  0.60788675  0.62904132     1.07030
O755        O  0.84467882  0.53476906  0.68991087    -0.77760
O756        O  0.88312512  0.51815723  0.63575035    -0.65340
Ni757      Ni  0.95549931  0.52716247  0.76875916     1.34870
C758        C  0.90587347  0.50917563  0.63379789     0.85760
O759        O  0.88091717  0.51215875  0.78661309    -0.78300
O760        O  0.91434312  0.48809005  0.78678849    -0.88570
C761        C  0.84049189  0.54296574  0.72477262     0.85340
O762        O  0.94865807  0.55410032  0.80675346    -0.66770
O763        O  0.92472244  0.59176170  0.62273040    -0.86060
C764        C  0.95069470  0.58240917  0.79822349     0.86170
C765        C  0.88712304  0.48836497  0.79654909     1.07740
H766        H  0.92299772  0.59363371  0.70432163     0.39540
O767        O  0.91449948  0.56973101  0.69715312    -1.08720
O768        O  0.93409581  0.52681397  0.65087652    -0.65370
Ni769      Ni  0.95162897  0.56320182  0.69005407     1.26350
O770        O  0.93200394  0.58310551  0.77142578    -0.65600
O771        O  0.97067867  0.59793178  0.65331647    -0.77890
C772        C  0.00946801  0.56946596  0.71789263     0.85550
O773        O  0.99135435  0.56043099  0.68809962    -0.65070
Ni774      Ni  0.88520740  0.56082344  0.65584148     1.27450
Ni775      Ni  0.89796488  0.54211983  0.74185467     1.26060
H776        H  0.91803260  0.50631479  0.71681769     0.40090
O777        O  0.56494590  0.03211540  0.91922732    -0.79860
O778        O  0.70379116  0.15691578  0.91275992    -0.64550
O779        O  0.61010147  0.09673039  0.89959563    -1.11150
C780        C  0.65381070  0.06147867  0.79680152     1.07030
O781        O  0.70509933  0.17740912  0.85340653    -0.77760
O782        O  0.64771108  0.14142706  0.80457818    -0.65340
Ni783      Ni  0.58029741  0.07502142  0.94303172     1.34870
C784        C  0.61585845  0.11899399  0.80344263     0.85760
O785        O  0.65058907  0.14848488  0.95412104    -0.78300
O786        O  0.59441170  0.11838168  0.96625154    -0.88570
C787        C  0.71735713  0.18097933  0.88752774     0.85340
O788        O  0.61021037  0.06694022  0.97344181    -0.66770
O789        O  0.67132620  0.09422542  0.78921865    -0.86060
C790        C  0.63730264  0.06735520  0.96296878     0.86170
C791        C  0.62358795  0.14515180  0.96974252     1.07740
H792        H  0.67760516  0.09637532  0.87130841     0.39540
O793        O  0.66380405  0.10637482  0.86477684    -1.08720
O794        O  0.60370046  0.09002152  0.82099701    -0.65370
Ni795      Ni  0.61892108  0.07031611  0.86069045     1.26350
O796        O  0.65886127  0.08993505  0.93888353    -0.65600
O797        O  0.63195982  0.04852517  0.82416510    -0.77890
C798        C  0.55523124  0.03159920  0.88532327     0.85550
O799        O  0.57407291  0.03144666  0.85873827    -0.65070
Ni800      Ni  0.68547114  0.13530137  0.82148426     1.27450
Ni801      Ni  0.65683547  0.12643768  0.90925441     1.26060
H802        H  0.60219810  0.11058403  0.88709483     0.40090
O803        O  0.56824002  0.98670330  0.56842122    -0.79860
O804        O  0.55415348  0.85378728  0.58455908    -0.64550
O805        O  0.53138456  0.92261706  0.59870514    -1.11150
C806        C  0.60765245  0.95431912  0.69714288     1.07030
O807        O  0.53622308  0.83672194  0.64575433    -0.77760
O808        O  0.51828561  0.87958893  0.69155046    -0.65340
Ni809      Ni  0.52769048  0.94508762  0.55491481     1.34870
C810        C  0.51314845  0.90534473  0.69334929     0.85760
O811        O  0.51226186  0.86849728  0.54621731    -0.78300
O812        O  0.48857586  0.90222672  0.54249295    -0.88570
C813        C  0.54292004  0.83066939  0.61090679     0.85340
O814        O  0.55307075  0.93444957  0.51869421    -0.66770
O815        O  0.58886643  0.92198230  0.70663861    -0.86060
C816        C  0.58148462  0.93875329  0.52785204     0.86170
C817        C  0.48832363  0.87376574  0.53630205     1.07740
H818        H  0.59438529  0.91391715  0.62355327     0.39540
O819        O  0.57132148  0.90730522  0.63122271    -1.08720
O820        O  0.53372984  0.93379752  0.67591842    -0.65370
Ni821      Ni  0.56764756  0.94689360  0.63346203     1.26350
O822        O  0.58277395  0.92122690  0.55620594    -0.65600
O823        O  0.60327571  0.96736146  0.66703856    -0.77890
C824        C  0.56642484  0.00118472  0.59904786     0.85550
O825        O  0.56683916  0.98836605  0.63131443    -0.65070
Ni826      Ni  0.56054267  0.88002123  0.67607606     1.27450
Ni827      Ni  0.54292492  0.88850176  0.58877738     1.26060
H828        H  0.50978756  0.91199815  0.61258949     0.40090
O829        O  0.45116580  0.02608781  0.60583958    -0.79860
O830        O  0.46871514  0.15631862  0.59501449    -0.64550
O831        O  0.49046433  0.08964428  0.62384761    -1.11150
C832        C  0.40667388  0.06622479  0.71709462     1.07030
O833        O  0.48198006  0.17823640  0.65453176    -0.77760
O834        O  0.49684978  0.14137990  0.71081913    -0.65340
Ni835      Ni  0.49297104  0.06186139  0.58489480     1.34870
C836        C  0.50472820  0.11780980  0.71579794     0.85760
O837        O  0.51411317  0.13880319  0.56572144    -0.78300
O838        O  0.53377850  0.10125865  0.56734801    -0.88570
C839        C  0.47513361  0.18045959  0.61894251     0.85340
O840        O  0.47016325  0.06822320  0.54343418    -0.66770
O841        O  0.42355001  0.09923114  0.72316475    -0.86060
C842        C  0.44289668  0.06832662  0.54882331     0.86170
C843        C  0.53771005  0.13125292  0.56032395     1.07740
H844        H  0.42577123  0.09808824  0.63995346     0.39540
O845        O  0.44849431  0.10654802  0.64923184    -1.08720
O846        O  0.48655217  0.08763396  0.70175310    -0.65370
Ni847      Ni  0.45353143  0.06830135  0.66061765     1.26350
O848        O  0.44148122  0.08820775  0.57466915    -0.65600
O849        O  0.41699625  0.05068517  0.69481252    -0.77890
C850        C  0.45937461  0.01595138  0.63520090     0.85550
O851        O  0.45627051  0.02746373  0.66734443    -0.65070
Ni852      Ni  0.45532342  0.13810106  0.68930080     1.27450
Ni853      Ni  0.47965968  0.12231334  0.60691509     1.26060
H854        H  0.51197694  0.10143545  0.63676149     0.40090
O855        O  0.44822177  0.00224006  0.90172433    -0.79860
O856        O  0.32786895  0.86450676  0.91221485    -0.64550
O857        O  0.41553864  0.93334541  0.87878353    -1.11150
C858        C  0.35315863  0.95707731  0.79454613     1.07030
O859        O  0.31942722  0.84437412  0.85156105    -0.77760
O860        O  0.37222392  0.88282943  0.79578032    -0.65340
Ni861      Ni  0.44805827  0.96028356  0.91536367     1.34870
C862        C  0.40217543  0.90804441  0.78739297     0.85760
O863        O  0.39034052  0.88340028  0.93737607    -0.78300
O864        O  0.44699000  0.91846573  0.92971324    -0.88570
C865        C  0.31037609  0.84114134  0.88769239     0.85340
O866        O  0.41930057  0.95538445  0.95881949    -0.66770
O867        O  0.33969755  0.92460400  0.78596608    -0.86060
C868        C  0.39116826  0.95435458  0.95628093     0.86170
C869        C  0.42086537  0.88980803  0.94043104     1.07740
H870        H  0.34099730  0.92278963  0.86983518     0.39540
O871        O  0.35592905  0.91531120  0.85876663    -1.08720
O872        O  0.41184484  0.93814986  0.80085176    -0.65370
Ni873      Ni  0.39809759  0.95430018  0.84679873     1.26350
O874        O  0.36890729  0.93340423  0.93266407    -0.65600
O875        O  0.37743183  0.97232507  0.81761530    -0.77890
C876        C  0.45285627  0.01497789  0.86775106     0.85550
O877        O  0.43958154  0.99543740  0.83915280    -0.65070
Ni878      Ni  0.33277229  0.88497415  0.81818495     1.27450
Ni879      Ni  0.37241851  0.89958299  0.89827161     1.26060
H880        H  0.42470500  0.92181508  0.86317581     0.40090
O881        O  0.43305076  0.47045435  0.73627005    -0.79860
O882        O  0.30864187  0.46198528  0.75188312    -0.64550
O883        O  0.40013167  0.49732382  0.77073337    -1.11150
C884        C  0.36042182  0.41354918  0.86390937     1.07030
O885        O  0.30490416  0.47620316  0.81345806    -0.77760
O886        O  0.36630699  0.50098602  0.85800429    -0.65340
Ni887      Ni  0.42921127  0.51021371  0.72782401     1.34870
C888        C  0.39677485  0.50716293  0.86291583     0.85760
O889        O  0.36508163  0.51557002  0.71898366    -0.78300
O890        O  0.42213602  0.54808612  0.72185535    -0.88570
C891        C  0.29434390  0.47055342  0.77804796     0.85340
O892        O  0.39537147  0.48660632  0.69009800    -0.66770
O893        O  0.34458323  0.42992493  0.87375187    -0.86060
C894        C  0.37786961  0.45454614  0.69401701     0.86170
C895        C  0.39337771  0.54387249  0.71202291     1.07740
H896        H  0.33123772  0.42451997  0.78968517     0.39540
O897        O  0.34575031  0.44803778  0.79838023    -1.08720
O898        O  0.40635656  0.48767184  0.84680280    -0.65370
Ni899      Ni  0.39040342  0.45771556  0.80116717     1.26350
O900        O  0.35575789  0.44440055  0.72170416    -0.65600
O901        O  0.37677635  0.41896650  0.83209233    -0.77890
C902        C  0.44919989  0.47168671  0.76547673     0.85550
O903        O  0.43472299  0.46515209  0.79832105    -0.65070
Ni904      Ni  0.32711708  0.45528740  0.84365905     1.27450
Ni905      Ni  0.35476833  0.47973032  0.75810996     1.26060
H906        H  0.40726750  0.51748195  0.78680117     0.40090
O907        O  0.48574116  0.45306406  0.58548660    -0.79860
O908        O  0.46426649  0.31505539  0.58498362    -0.64550
O909        O  0.50266119  0.40901092  0.56098799    -1.11150
C910        C  0.42025171  0.36647440  0.96857315     1.07030
O911        O  0.47989367  0.31069358  0.52391305    -0.77760
O912        O  0.50608864  0.37139492  0.97484408    -0.65340
Ni913      Ni  0.51757431  0.44125421  0.60139962     1.34870
C914        C  0.51292068  0.40251570  0.96813127     0.85760
O915        O  0.51455512  0.37142115  0.61860153    -0.78300
O916        O  0.54999332  0.42876589  0.61435159    -0.88570
C917        C  0.47252749  0.29978907  0.55944174     0.85340
O918        O  0.48729843  0.41031453  0.64043017    -0.66770
O919        O  0.43621334  0.35000933  0.95992476    -0.86060
C920        C  0.45616093  0.39069601  0.63402251     0.86170
C921        C  0.54289198  0.39882264  0.62580164     1.07740
H922        H  0.43041693  0.33995552  0.54415798     0.39540
O923        O  0.45382959  0.35399072  0.53535905    -1.08720
O924        O  0.49404529  0.41305516  0.98329394    -0.65370
Ni925      Ni  0.46436194  0.39980438  0.52911159     1.26350
O926        O  0.44826613  0.36595763  0.60993215    -0.65600
O927        O  0.42687498  0.38567620  0.99809883    -0.77890
C928        C  0.49305118  0.46461708  0.55162341     0.85550
O929        O  0.47305786  0.44616184  0.52609506    -0.65070
Ni930      Ni  0.46053898  0.33292354  0.99170278     1.27450
Ni931      Ni  0.48316568  0.36255957  0.57669071     1.26060
H932        H  0.52235057  0.41456331  0.54481722     0.40090
O933        O  0.02529142  0.46029467  0.75535447    -0.79860
O934        O  0.15298469  0.46574335  0.74762131    -0.64550
O935        O  0.08913753  0.49262426  0.73001442    -1.11150
C936        C  0.05877614  0.41602591  0.63069580     1.07030
O937        O  0.17303878  0.48000810  0.68679647    -0.77760
O938        O  0.13609714  0.50490083  0.64244324    -0.65340
Ni939      Ni  0.06597851  0.49754367  0.77380210     1.34870
C940        C  0.11082062  0.50929328  0.63622146     0.85760
O941        O  0.14097469  0.51186295  0.78330208    -0.78300
O942        O  0.10762525  0.53538625  0.78939887    -0.88570
C943        C  0.17642036  0.47357259  0.72252147     0.85340
O944        O  0.06958907  0.46771621  0.81002118    -0.66770
O945        O  0.09073762  0.43486346  0.62131515    -0.86060
C946        C  0.06850970  0.43989678  0.80056931     0.86170
C947        C  0.13630232  0.53707716  0.79166911     1.07740
H948        H  0.09624607  0.42615537  0.70695932     0.39540
O949        O  0.10342861  0.44965534  0.69910917    -1.08720
O950        O  0.08144442  0.48776558  0.65095166    -0.65370
Ni951      Ni  0.06548465  0.45458621  0.69509814     1.26350
O952        O  0.08788040  0.43988055  0.77331097    -0.65600
O953        O  0.04658373  0.41681147  0.66346267    -0.77890
C954        C  0.02033750  0.47028139  0.72351732     0.85550
O955        O  0.02452844  0.45663904  0.69373710    -0.65070
Ni956      Ni  0.13144140  0.45951373  0.65456797     1.27450
Ni957      Ni  0.12122336  0.47949244  0.74123744     1.26060
H958        H  0.10042096  0.51437056  0.71600095     0.40090
O959        O  0.99715951  0.42608266  0.95004403    -0.79860
O960        O  0.86170645  0.31739480  0.92695282    -0.64550
O961        O  0.93231989  0.40097341  0.96498963    -1.11150
C962        C  0.93942892  0.33681958  0.55934777     1.07030
O963        O  0.83658636  0.30434840  0.98614181    -0.77760
O964        O  0.87287636  0.36173003  0.53637216    -0.65340
Ni965      Ni  0.96347048  0.43506203  0.93097054     1.34870
C966        C  0.89914373  0.38915070  0.54829147     0.85760
O967        O  0.88873002  0.38397555  0.90368989    -0.78300
O968        O  0.92708515  0.44054420  0.91312371    -0.88570
C969        C  0.83619117  0.29896923  0.94929499     0.85340
O970        O  0.95875653  0.40761992  0.88688864    -0.66770
O971        O  0.90794450  0.32861392  0.56362049    -0.86060
C972        C  0.95418104  0.37737272  0.88817727     0.86170
C973        C  0.89859688  0.41623263  0.90067500     1.07740
H974        H  0.91062351  0.32015159  0.97371958     0.39540
O975        O  0.90611995  0.33775273  0.98375544    -1.08720
O976        O  0.92862445  0.39283333  0.54172731    -0.65370
Ni977      Ni  0.94623577  0.37657943  0.99822216     1.26350
O978        O  0.93107281  0.35436545  0.91062878    -0.65600
O979        O  0.95549212  0.34815272  0.52792232    -0.77890
C980        C  0.00534812  0.43579754  0.98441880     0.85550
O981        O  0.98849976  0.41527774  0.01139407    -0.65070
Ni982      Ni  0.87302727  0.31868581  0.52409546     1.27450
Ni983      Ni  0.89782560  0.36014485  0.94334162     1.26060
H984        H  0.92168393  0.41157980  0.97939990     0.40090
C985        C  0.97211707  0.37919302  0.60457213     0.24630
C986        C  0.96266926  0.34607187  0.59120162    -0.23480
C987        C  0.98804725  0.33667207  0.58824402     0.19530
C988        C  0.02215834  0.36099490  0.59630252     0.24570
C989        C  0.03158736  0.39560920  0.60397015    -0.23430
C990        C  0.00610626  0.40464938  0.60499392     0.19470
F991        F  0.01399985  0.43765259  0.61314694    -0.13380
F992        F  0.94851559  0.38864152  0.61083944    -0.15750
F993        F  0.04566341  0.35081848  0.59713094    -0.15750
F994        F  0.98005014  0.30487727  0.57478349    -0.13380
C995        C  0.04184161  0.40240676  0.85941234     0.24630
C996        C  0.04092321  0.40753844  0.81951368    -0.23480
C997        C  0.00896387  0.38982699  0.80175190     0.19530
C998        C  0.97858421  0.37346768  0.82428442     0.24570
C999        C  0.97950114  0.37247532  0.86489324    -0.23430
C1000       C  0.01145581  0.38378819  0.88153979     0.19470
F1001       F  0.01352570  0.38133515  0.92032372    -0.13380
F1002       F  0.07204326  0.41862949  0.87767635    -0.15750
F1003       F  0.94846731  0.36269618  0.80683639    -0.15750
F1004       F  0.00694236  0.39249428  0.76296779    -0.13380
C1005       C  0.26531131  0.48522298  0.72672750     0.24630
C1006       C  0.26617274  0.47560011  0.76543277    -0.23480
C1007       C  0.23860442  0.46792088  0.79025907     0.19530
C1008       C  0.21002456  0.46800982  0.77643154     0.24570
C1009       C  0.20823989  0.47595905  0.73706047    -0.23430
C1010       C  0.23670991  0.48536375  0.71273526     0.19470
F1011       F  0.23684676  0.49420565  0.67523650    -0.13380
F1012       F  0.29218935  0.49430702  0.70208291    -0.15750
F1013       F  0.18373111  0.45924388  0.80189033    -0.15750
F1014       F  0.23842114  0.45844738  0.82752866    -0.13380
C1015       C  0.35888948  0.39153558  0.93080812     0.24630
C1016       C  0.36403714  0.39007352  0.89096845    -0.23480
C1017       C  0.37936472  0.37091997  0.87754482     0.19530
C1018       C  0.39523989  0.35988031  0.90318918     0.24570
C1019       C  0.39488365  0.36657890  0.94267727    -0.23430
C1020       C  0.37368912  0.37930038  0.95651277     0.19470
F1021       F  0.36959147  0.38268709  0.99500738    -0.13380
F1022       F  0.34242861  0.40765495  0.94505327    -0.15750
F1023       F  0.41360075  0.34581168  0.88887084    -0.15750
F1024       F  0.38188461  0.36564575  0.83918866    -0.13380
C1025       C  0.37754183  0.39718550  0.67297811     0.24630
C1026       C  0.39230367  0.43383923  0.67398194    -0.23840
C1027       C  0.42642251  0.45349499  0.66005975     0.19530
C1028       C  0.44645237  0.43858590  0.65495799     0.24570
C1029       C  0.43216303  0.40263126  0.64968383    -0.23430
C1030       C  0.39672278  0.38177322  0.65823430     0.19470
F1031       F  0.38133242  0.34680191  0.65498264    -0.13380
F1032       F  0.34490263  0.37649335  0.68547389    -0.15750
F1033       F  0.48065637  0.46055186  0.65589202    -0.15750
F1034       F  0.44297047  0.48865694  0.65676496    -0.13380
C1035       C  0.49609961  0.24472747  0.61957295     0.24630
C1036       C  0.47541536  0.21166524  0.60377240    -0.23480
C1037       C  0.45502193  0.20837188  0.57194012     0.19530
C1038       C  0.45532460  0.23735543  0.55638409     0.24570
C1039       C  0.47559384  0.27013703  0.57249259    -0.23430
C1040       C  0.49604711  0.27369051  0.60414780     0.19470
F1041       F  0.51616642  0.30534500  0.61997676    -0.13380
F1042       F  0.51673989  0.24914961  0.64943862    -0.15750
F1043       F  0.43443889  0.23310642  0.52683190    -0.15750
F1044       F  0.43370459  0.17678899  0.55660284    -0.13380
C1045       C  0.33862308  0.97973512  0.73704194     0.24630
C1046       C  0.34347158  0.98071335  0.77675390    -0.23480
C1047       C  0.35294305  0.01216126  0.79662740     0.19530
C1048       C  0.37019326  0.04353975  0.77637091     0.24570
C1049       C  0.37382493  0.04255471  0.73637068    -0.23430
C1050       C  0.35230217  0.01111013  0.71690087     0.19470
F1051       F  0.35176635  0.01034035  0.67764479    -0.13380
F1052       F  0.32677355  0.94963381  0.71719638    -0.15750
F1053       F  0.38827374  0.07364867  0.79599236    -0.15750
F1054       F  0.35318647  0.01299752  0.83590009    -0.13380
C1055       C  0.39442146  0.00750106  0.54331440     0.24630
C1056       C  0.41302600  0.04119971  0.52711921    -0.23480
C1057       C  0.41304906  0.04394121  0.48662710     0.19530
C1058       C  0.39951949  0.01415371  0.96318247     0.24570
C1059       C  0.38737327  0.98087047  0.97939083    -0.23430
C1060       C  0.38316992  0.97778669  0.51991615     0.19470
F1061       F  0.37116944  0.94624158  0.03689643    -0.13380
F1062       F  0.39035847  0.00331014  0.58221415    -0.15750
F1063       F  0.40143242  0.01826845  0.92424510    -0.15750
F1064       F  0.42950440  0.07575955  0.46964942    -0.13380
C1065       C  0.46834626  0.88256213  0.75013178     0.24630
C1066       C  0.48250183  0.90309780  0.71621563    -0.23480
C1067       C  0.46781141  0.92315620  0.70507946     0.19530
C1068       C  0.44118654  0.92347920  0.72713805     0.24570
C1069       C  0.42744470  0.90348839  0.76128232    -0.23430
C1070       C  0.44149346  0.88283450  0.77219738     0.19470
F1071       F  0.43047418  0.86418232  0.80555625    -0.13380
F1072       F  0.48163013  0.86338843  0.76321770    -0.15750
F1073       F  0.42875929  0.94370191  0.71492237    -0.15750
F1074       F  0.47913011  0.94262387  0.67229270    -0.13380
C1075       C  0.47065050  0.85084392  0.97308038     0.24630
C1076       C  0.46120071  0.84859369  0.51223356    -0.23480
C1077       C  0.42843640  0.84215626  0.52225956     0.19530
C1078       C  0.41125382  0.85095963  0.49590752     0.24570
C1079       C  0.42679584  0.86435639  0.95954477    -0.23430
C1080       C  0.45403748  0.86023412  0.94664709     0.19470
F1081       F  0.46755533  0.87034676  0.91042978    -0.13380
F1082       F  0.50085828  0.85361454  0.96250771    -0.15750
F1083       F  0.38358357  0.85267443  0.50820891    -0.15750
F1084       F  0.41775563  0.83675249  0.55985741    -0.13380
C1085       C  0.54856675  0.03631636  0.63393523     0.24630
C1086       C  0.54937949  0.02099002  0.59873944    -0.23480
C1087       C  0.52097780  0.00687290  0.57508199     0.19530
C1088       C  0.48974995  0.99842144  0.59117082     0.24570
C1089       C  0.48773448  0.01051813  0.62821584    -0.23430
C1090       C  0.51757200  0.03001176  0.64938414     0.19470
F1091       F  0.51694078  0.04338904  0.68453333    -0.13380
F1092       F  0.57675576  0.05230699  0.65589502    -0.15750
F1093       F  0.46157995  0.98079200  0.56937011    -0.15750
F1094       F  0.52227562  0.99596893  0.53864626    -0.13380
C1095       C  0.77859452  0.22655880  0.88153976     0.24630
C1096       C  0.74666330  0.21407430  0.89963741    -0.23480
C1097       C  0.74384593  0.23062079  0.93307399     0.19530
C1098       C  0.77270102  0.25876998  0.94879788     0.24570
C1099       C  0.80502858  0.27069589  0.93152535    -0.23430
C1100       C  0.80756176  0.25454818  0.89732764     0.19470
F1101       F  0.83833409  0.26450940  0.88027433    -0.13380
F1102       F  0.78207833  0.21014850  0.85010052    -0.15750
F1103       F  0.76896145  0.27420039  0.98098542    -0.15750
F1104       F  0.71306937  0.21910032  0.95087164    -0.13380
C1105       C  0.65515851  0.01419626  0.70861642     0.24630
C1106       C  0.63371149  0.97991853  0.72273772    -0.23480
C1107       C  0.63158084  0.97382372  0.76249989     0.19530
C1108       C  0.64384818  0.00188724  0.78752415     0.24570
C1109       C  0.65663873  0.03583784  0.77265975    -0.23430
C1110       C  0.66561681  0.04220403  0.73348412     0.19470
F1111       F  0.68050406  0.07482072  0.71856925    -0.13380
F1112       F  0.66177832  0.02082559  0.67013716    -0.15750
F1113       F  0.63933044  0.99545117  0.82618065    -0.15750
F1114       F  0.61393783  0.94112450  0.77719661    -0.13380
C1115       C  0.64438386  0.03257006  0.51564891     0.24630
C1116       C  0.63997800  0.03700649  0.97631880    -0.23480
C1117       C  0.62571688  0.00733319  0.95273019     0.19530
C1118       C  0.61141653  0.97389838  0.96901977     0.24570
C1119       C  0.61184184  0.96918777  0.50917250    -0.23430
C1120       C  0.63167449  0.99902022  0.53157163     0.19470
F1121       F  0.63370870  0.99576146  0.57026710    -0.13380
F1122       F  0.65765323  0.06038543  0.53951327    -0.15750
F1123       F  0.59285851  0.94597301  0.94624544    -0.15750
F1124       F  0.62081290  0.01035758  0.91470190    -0.13380
C1125       C  0.52084633  0.05967806  0.90508987     0.24630
C1126       C  0.53404876  0.04677194  0.87607073    -0.23480
C1127       C  0.52560928  0.04812093  0.83703186     0.19530
C1128       C  0.49951426  0.05494935  0.82958680     0.24570
C1129       C  0.47859295  0.05188301  0.86123786    -0.23430
C1130       C  0.49594047  0.06757795  0.89502274     0.19470
F1131       F  0.48018052  0.07583583  0.92329418    -0.13380
F1132       F  0.52719294  0.05941115  0.94311227    -0.15750
F1133       F  0.48750675  0.05074411  0.79319223    -0.15750
F1134       F  0.53890980  0.03864555  0.80705943    -0.13380
C1135       C  0.58950741  0.12192495  0.73994559     0.24630
C1136       C  0.59118757  0.12543880  0.78052463    -0.23480
C1137       C  0.56569944  0.13003973  0.79919822     0.19530
C1138       C  0.53901655  0.12998530  0.77824587     0.24570
C1139       C  0.53638724  0.12467183  0.73783620    -0.23430
C1140       C  0.56266168  0.12139110  0.71911338     0.19470
F1141       F  0.56212058  0.11700541  0.68026021    -0.13380
F1142       F  0.61307864  0.11723128  0.72042413    -0.15750
F1143       F  0.51446494  0.13288335  0.79799066    -0.15750
F1144       F  0.56583508  0.13327740  0.83823570    -0.13380
C1145       C  0.60136040  0.18257526  0.98477135     0.24630
C1146       C  0.62471912  0.17213567  0.99473393    -0.23480
C1147       C  0.62794661  0.16715688  0.53383886     0.19530
C1148       C  0.60016514  0.15829389  0.55867303     0.24570
C1149       C  0.57094037  0.15722798  0.54429932    -0.23430
C1150       C  0.57320429  0.17337001  0.00930644     0.19470
F1151       F  0.54602837  0.17461755  0.99588158    -0.13380
F1152       F  0.60020779  0.19143626  0.94759839    -0.15750
F1153       F  0.59950871  0.14535075  0.59431904    -0.15750
F1154       F  0.65269997  0.16080522  0.54511003    -0.13380
C1155       C  0.89565569  0.47311154  0.57131554     0.24630
C1156       C  0.89995265  0.47663421  0.61182527    -0.23480
C1157       C  0.90139953  0.44956842  0.63115014     0.19530
C1158       C  0.89879803  0.42044156  0.61107259     0.24570
C1159       C  0.89634147  0.41769021  0.57036269    -0.23430
C1160       C  0.89428869  0.44447101  0.55097006     0.19470
F1161       F  0.89167786  0.44340143  0.51194044    -0.13380
F1162       F  0.89433804  0.49828888  0.55098166    -0.15750
F1163       F  0.89819812  0.39454377  0.63193622    -0.15750
F1164       F  0.90523015  0.45117637  0.67003283    -0.13380
C1165       C  0.86898996  0.47357176  0.86278431     0.24630
C1166       C  0.86482947  0.46220250  0.82443970    -0.23480
C1167       C  0.85701236  0.42815446  0.81646836     0.19530
C1168       C  0.86382736  0.41004722  0.84404662     0.24570
C1169       C  0.87745698  0.42609547  0.87942333    -0.23430
C1170       C  0.87641249  0.45590578  0.89030416     0.19470
F1171       F  0.88691665  0.47023494  0.92568966    -0.13380
F1172       F  0.87423322  0.50563700  0.87127071    -0.15750
F1173       F  0.86282831  0.38014423  0.83370289    -0.15750
F1174       F  0.85089214  0.41617331  0.77963590    -0.13380
C1175       C  0.04896671  0.55929494  0.68251348     0.24630
C1176       C  0.04375938  0.57383085  0.71603484    -0.23480
C1177       C  0.05046471  0.56288411  0.75075683     0.19530
C1178       C  0.03677382  0.52723092  0.75433202     0.24570
C1179       C  0.02984264  0.50688446  0.72047175    -0.23430
C1180       C  0.03797746  0.52393895  0.68408167     0.19470
F1181       F  0.03242148  0.50629387  0.65049153    -0.13380
F1182       F  0.05244536  0.57470728  0.64768458    -0.15750
F1183       F  0.02814405  0.51274873  0.79025818    -0.15750
F1184       F  0.05549384  0.58192250  0.78327291    -0.13380
C1185       C  0.24652937  0.76624341  0.95179986     0.24630
C1186       C  0.21619211  0.75432983  0.93135538    -0.23480
C1187       C  0.21787152  0.77086037  0.89585315     0.19530
C1188       C  0.24873235  0.79790188  0.88115912     0.24570
C1189       C  0.27879278  0.80985516  0.90163749    -0.23430
C1190       C  0.27743048  0.79393545  0.93724116     0.19470
F1191       F  0.30616219  0.80497245  0.95775895    -0.13380
F1192       F  0.24648111  0.75102247  0.98565851    -0.15750
F1193       F  0.24884667  0.81368248  0.84766787    -0.15750
F1194       F  0.18942658  0.76158446  0.87539772    -0.13380
C1195       C  0.00702614  0.66083553  0.54496618     0.24630
C1196       C  0.03945254  0.67199996  0.56071110    -0.23480
C1197       C  0.04305932  0.67599337  0.60063187     0.19530
C1198       C  0.01389484  0.66063113  0.62419428     0.24570
C1199       C  0.98166251  0.63920116  0.60754404    -0.23430
C1200       C  0.97787345  0.64294473  0.56831897     0.19470
F1201       F  0.94691060  0.62525275  0.55184520    -0.13380
F1202       F  0.00334609  0.66144974  0.50616352    -0.15750
F1203       F  0.01762983  0.66149112  0.66312863    -0.15750
F1204       F  0.07407473  0.68945893  0.61684306    -0.13380
C1205       C  0.98079466  0.61414462  0.85787753     0.24630
C1206       C  0.97896712  0.61380256  0.81720910    -0.23480
C1207       C  0.00971668  0.63406576  0.79611876     0.19530
C1208       C  0.04148708  0.64863819  0.81448056     0.24570
C1209       C  0.04330228  0.64550492  0.85477015    -0.23430
C1210       C  0.01245232  0.63047309  0.87640938     0.19470
F1211       F  0.01283773  0.62710278  0.91534080    -0.13380
F1212       F  0.95199441  0.59489095  0.87949545    -0.15750
F1213       F  0.07044099  0.66259351  0.79237562    -0.15750
F1214       F  0.00929693  0.63551673  0.75697723    -0.13380
C1215       C  0.00019559  0.51246491  0.99443273     0.24630
C1216       C  0.02266721  0.53135771  0.96391866    -0.23480
C1217       C  0.04703787  0.52270871  0.95092920     0.19530
C1218       C  0.04654300  0.49371070  0.96537849     0.24570
C1219       C  0.02091567  0.47231135  0.99154157    -0.23430
C1220       C  0.99992263  0.48347193  0.00897919     0.19470
F1221       F  0.97615952  0.46397087  0.03638899    -0.13380
F1222       F  0.97819590  0.52182098  0.00961615    -0.15750
F1223       F  0.06777074  0.48360530  0.94957335    -0.15750
F1224       F  0.07126922  0.54148209  0.92411391    -0.13380
C1225       C  0.08778684  0.55939786  0.56286007     0.24630
C1226       C  0.11574031  0.59398004  0.56193452    -0.23480
C1227       C  0.14348902  0.60010018  0.58544728     0.19530
C1228       C  0.14269952  0.57315149  0.60889238     0.24570
C1229       C  0.11415332  0.53886801  0.60992891    -0.23430
C1230       C  0.08725613  0.53281131  0.58553907     0.19470
F1231       F  0.06008975  0.50031319  0.58261581    -0.13380
F1232       F  0.06005002  0.55067944  0.54158852    -0.15750
F1233       F  0.16969711  0.58098721  0.63133015    -0.15750
F1234       F  0.17136263  0.63231552  0.58635081    -0.13380
C1235       C  0.17222848  0.62760135  0.81198173     0.24630
C1236       C  0.17290675  0.62367782  0.85195452    -0.23480
C1237       C  0.18146427  0.59954304  0.86591752     0.19530
C1238       C  0.17585896  0.57160241  0.84253003     0.24570
C1239       C  0.16419345  0.57001830  0.80512762    -0.23430
C1240       C  0.16738070  0.60018742  0.78825803     0.19470
F1241       F  0.15792704  0.59966384  0.75116521    -0.13380
F1242       F  0.16656413  0.65244773  0.79758895    -0.15750
F1243       F  0.17456270  0.54331375  0.85870183    -0.15750
F1244       F  0.18533023  0.59749900  0.90443130    -0.13380
C1245       C  0.52702228  0.78428555  0.56127595     0.24630
C1246       C  0.53680047  0.79599567  0.59937026    -0.23480
C1247       C  0.54460637  0.77638394  0.62409104     0.19530
C1248       C  0.54480526  0.74689818  0.61034963     0.24570
C1249       C  0.53708410  0.73626189  0.57134510    -0.23430
C1250       C  0.52713049  0.75481594  0.54744000     0.19470
F1251       F  0.51846544  0.74523855  0.51021645    -0.13380
F1252       F  0.51801049  0.80191352  0.53693887    -0.15750
F1253       F  0.55384975  0.72964997  0.63518979    -0.15750
F1254       F  0.55428187  0.78700141  0.66085933    -0.13380
C1255       C  0.57081625  0.52449314  0.49232702     0.24630
C1256       C  0.58701521  0.54558268  0.52388812    -0.23480
C1257       C  0.58743678  0.52720619  0.55601973     0.19530
C1258       C  0.55535511  0.50044829  0.56784964     0.24570
C1259       C  0.52894751  0.48670302  0.54018950    -0.23430
C1260       C  0.53807388  0.49677054  0.50089243     0.19470
F1261       F  0.51413524  0.48622723  0.47344150    -0.13380
F1262       F  0.57786492  0.53910648  0.45661855    -0.15750
F1263       F  0.54925476  0.49508046  0.60645939    -0.15750
F1264       F  0.61190412  0.54336471  0.58253948    -0.13380
C1265       C  0.45934449  0.55350833  0.94584801     0.24630
C1266       C  0.47859276  0.58887683  0.93418064    -0.23480
C1267       C  0.46812307  0.59757296  0.89971754     0.19530
C1268       C  0.44066940  0.57181059  0.87745896     0.24570
C1269       C  0.42225798  0.53639089  0.88895919    -0.23430
C1270       C  0.43217208  0.52808018  0.92377804     0.19470
F1271       F  0.41572182  0.49465781  0.93637052    -0.13380
F1272       F  0.46692461  0.54310205  0.97908827    -0.15750
F1273       F  0.43319841  0.58133699  0.84356739    -0.15750
F1274       F  0.48555044  0.63070670  0.88631769    -0.13380
C1275       C  0.45200819  0.61487664  0.66637444     0.24630
C1276       C  0.45160113  0.59425673  0.63524230    -0.23480
C1277       C  0.42005042  0.56698214  0.62295768     0.19530
C1278       C  0.39098015  0.55622965  0.64639882     0.24570
C1279       C  0.39529464  0.56933997  0.68404796    -0.23430
C1280       C  0.42268174  0.60316608  0.68980278     0.19470
F1281       F  0.42504749  0.61920132  0.72401182    -0.13380
F1282       F  0.48143237  0.64328098  0.67711151    -0.15750
F1283       F  0.36197162  0.52657707  0.63736727    -0.15750
F1284       F  0.41798621  0.54903501  0.59030678    -0.13380
C1285       C  0.79811377  0.53378742  0.77796196     0.24630
C1286       C  0.80728670  0.53864969  0.73826048    -0.23480
C1287       C  0.78586433  0.54227042  0.71253381     0.19530
C1288       C  0.75705524  0.54302786  0.72631530     0.24570
C1289       C  0.74882251  0.54012862  0.76640208    -0.23430
C1290       C  0.76931102  0.53450709  0.79183560     0.19470
F1291       F  0.76219407  0.53063937  0.83041257    -0.13380
F1292       F  0.81731599  0.52870756  0.80370059    -0.15750
F1293       F  0.73784636  0.54759739  0.70012408    -0.15750
F1294       F  0.79371584  0.54697557  0.67412858    -0.13380
C1295       C  0.67415777  0.67235886  0.88283748     0.24630
C1296       C  0.68208784  0.64865077  0.90049887    -0.23480
C1297       C  0.67965448  0.64570488  0.94066216     0.19530
C1298       C  0.66116510  0.65819576  0.96087572     0.24570
C1299       C  0.64276403  0.67076325  0.94036114    -0.23430
C1300       C  0.65250413  0.68157515  0.90216315     0.19470
F1301       F  0.63753187  0.69620097  0.88221472    -0.13380
F1302       F  0.68051546  0.67957974  0.84444627    -0.15750
F1303       F  0.65589367  0.65193761  0.99954430    -0.15750
F1304       F  0.68942413  0.62558423  0.95931324    -0.13380
C1305       C  0.63302235  0.62860695  0.70343984     0.24630
C1306       C  0.64602094  0.60862859  0.68631574    -0.23480
C1307       C  0.64571822  0.60684081  0.64566358     0.19530
C1308       C  0.62863673  0.61984780  0.62366467     0.24570
C1309       C  0.60949943  0.63318385  0.64179909    -0.23430
C1310       C  0.61353155  0.63908141  0.68190190     0.19470
F1311       F  0.59648189  0.65264843  0.70080259    -0.13380
F1312       F  0.63644573  0.63529490  0.74186633    -0.15750
F1313       F  0.62820520  0.61635360  0.58471095    -0.15750
F1314       F  0.65962066  0.58975419  0.62747717    -0.13380
C1315       C  0.53311287  0.51173368  0.80390875     0.24630
C1316       C  0.54421400  0.54630637  0.79358358    -0.23480
C1317       C  0.52696025  0.55388292  0.76612077     0.19530
C1318       C  0.49848654  0.52709893  0.74980605     0.24570
C1319       C  0.48503303  0.49329961  0.76455208    -0.23430
C1320       C  0.50299771  0.48541952  0.79041610     0.19470
F1321       F  0.49092482  0.45235052  0.80292866    -0.13380
F1322       F  0.55337434  0.50282959  0.82234953    -0.15750
F1323       F  0.48381212  0.53458033  0.72066449    -0.15750
F1324       F  0.53977129  0.58672170  0.75239893    -0.13380
C1325       C  0.60338415  0.46263681  0.92015967     0.24630
C1326       C  0.59861115  0.48798812  0.90098492    -0.23480
C1327       C  0.56497784  0.48224914  0.90304298     0.19530
C1328       C  0.53758196  0.45225600  0.92008338     0.24570
C1329       C  0.54243972  0.42853574  0.94175067    -0.23430
C1330       C  0.57602788  0.43401526  0.94106295     0.19470
F1331       F  0.58273208  0.41234518  0.96141426    -0.13380
F1332       F  0.63480402  0.46620325  0.92019328    -0.15750
F1333       F  0.50565379  0.44692443  0.91609348    -0.15750
F1334       F  0.55829916  0.50692180  0.89092143    -0.13380
C1335       C  0.60114554  0.42291549  0.64663296     0.24630
C1336       C  0.56650016  0.39850071  0.65369008    -0.23480
C1337       C  0.55418522  0.39297633  0.69198652     0.19530
C1338       C  0.57125649  0.41935398  0.71882565     0.24570
C1339       C  0.60156371  0.44967577  0.70763386    -0.23430
C1340       C  0.61848212  0.44948147  0.67332518     0.19470
F1341       F  0.64877957  0.47750424  0.66274837    -0.13380
F1342       F  0.61466000  0.42655346  0.61039780    -0.15750
F1343       F  0.55576932  0.41764996  0.75343870    -0.15750
F1344       F  0.52188785  0.36737062  0.70051616    -0.13380
loop_ 
_geom_bond_atom_site_label_1 
_geom_bond_atom_site_label_2 
_geom_bond_distance 
_geom_bond_site_symmetry_2 
_ccdc_geom_bond_type 
O1           Ni7   1.891       .  S
O1           C22   1.250       .  A
O2          Ni25   1.874       .  S
O2           C11   1.274       .  A
O3           Ni7   1.870       .  S
O3          Ni25   1.853       .  S
O3          Ni19   1.911       .  S
O3           H26   0.965       .  S
C4           O21   1.261       .  A
C4           O13   1.296       .  A
C4          C624   1.480       .  S
O5          Ni24   1.982       .  S
O5           C11   1.297       .  A
O6          Ni24   1.986       .  S
O6            C8   1.283       .  A
Ni7          O10   1.894       .  S
Ni7          O12   1.896       .  S
C8           O18   1.276       .  A
C8          C654   1.554       .  S
O9          Ni25   1.952       .  S
O9           C15   1.290       .  A
O10          C15   1.282       .  A
C11         C617   1.496       .  S
O12          C14   1.253       .  A
O13         Ni24   1.996       .  S
C14          O20   1.284       .  A
C14         C634   1.513       .  S
C15         C667   1.470       .  S
H16          O17   0.967       .  S
O17         Ni25   1.890       .  S
O17         Ni19   1.864       .  S
O17         Ni24   1.883       .  S
O18         Ni19   1.960       .  S
Ni19         O23   1.886       .  S
Ni19         O21   1.833       .  S
O20         Ni25   2.009       .  S
C22          O23   1.253       .  A
C22         C644   1.412       .  S
O27         Ni33   1.941       .  S
O27          C48   1.279       .  A
O28         Ni51   1.874       .  S
O28          C37   1.274       .  A
O29         Ni33   1.870       .  S
O29         Ni51   1.865       .  S
O29         Ni45   1.870       .  S
O29          H52   0.966       .  S
C30          O47   1.262       .  A
C30          O39   1.293       .  A
C30         C627   1.480       .  S
O31        Ni722   1.976   1_554  S
O31          C37   1.298       .  A
O32         Ni50   1.997       .  S
O32          C34   1.288       .  A
Ni33         O36   1.921       .  S
Ni33         O38   1.910       .  S
C34          O44   1.272       .  A
C34         C594   1.548       .  S
O35         Ni51   1.924       .  S
O35          C41   1.280       .  A
O36          C41   1.284       .  A
C37         C577   1.494       .  S
O38          C40   1.262       .  A
O39         Ni50   1.982       .  S
C40          O46   1.285       .  A
C40         C637   1.513       .  S
C41         C604   1.470       .  S
H42          O43   0.967       .  S
O43         Ni51   1.876       .  S
O43         Ni45   1.856       .  S
O43        Ni722   1.878   1_554  S
O44        Ni717   1.942       .  S
Ni45         O49   1.840       .  S
Ni45        O716   1.942   1_554  S
Ni45        O719   1.840   1_554  S
O46         Ni51   1.997       .  S
O47        Ni717   1.840       .  S
C48          O49   1.260       .  A
C48         C584   1.487       .  S
Ni50        O703   1.976       .  S
Ni50        O715   1.878       .  S
O53         Ni59   1.879       .  S
O53          C74   1.263       .  A
O54         Ni77   1.870       .  S
O54          C63   1.273       .  A
O55         Ni59   1.898       .  S
O55         Ni77   1.888       .  S
O55         Ni71   1.932       .  S
O55          H78   0.966       .  S
C56          O73   1.268       .  A
C56          O65   1.294       .  A
C56         C524   1.471       .  S
O57        Ni748   1.988       .  S
O57          C63   1.299       .  A
O58         Ni76   1.993       .  S
O58          C60   1.286       .  A
Ni59         O62   1.892       .  S
Ni59         O64   1.907       .  S
C60          O70   1.275       .  A
C60         C554   1.558       .  S
O61         Ni77   1.928       .  S
O61          C67   1.272       .  A
O62          C67   1.271       .  A
C63         C514   1.498       .  S
O64          C66   1.263       .  A
O65         Ni76   1.974       .  S
C66          O72   1.285       .  A
C66         C537   1.502       .  S
C67         C564   1.459       .  S
H68          O69   0.967       .  S
O69         Ni77   1.866       .  S
O69         Ni71   1.856       .  S
O69        Ni748   1.883       .  S
O70        Ni743   1.953   1_554  S
Ni71         O75   1.885       .  S
Ni71        O742   1.953       .  S
Ni71        O745   1.845       .  S
O72         Ni77   1.985       .  S
O73        Ni743   1.845   1_554  S
C74          O75   1.252       .  A
C74         C544   1.449       .  S
Ni76        O729   1.988   1_554  S
Ni76        O741   1.883   1_554  S
O79         Ni85   1.924       .  S
O79         C100   1.270   1_655  A
O80        Ni103   1.876       .  S
O80          C89   1.274       .  A
O81         Ni85   1.863       .  S
O81        Ni103   1.869       .  S
O81         Ni97   1.878       .  S
O81         H104   0.966       .  S
C82          O99   1.265       .  A
C82          O91   1.291       .  A
C82         C527   1.470       .  S
O83        Ni102   1.975       .  S
O83          C89   1.296       .  A
O84        Ni102   1.981       .  S
O84          C86   1.285       .  A
Ni85         O88   1.899       .  S
Ni85         O90   1.900       .  S
C86          O96   1.276       .  A
C86         C484   1.537       .  S
O87        Ni103   1.927       .  S
O87          C93   1.279       .  A
O88          C93   1.282       .  A
C89         C614   1.488       .  S
O90          C92   1.256       .  A
O91        Ni102   1.969       .  S
C92          O98   1.283       .  A
C92         C534   1.503       .  S
C93         C494   1.449       .  S
H94          O95   0.967       .  S
O95        Ni103   1.874       .  S
O95         Ni97   1.864       .  S
O95        Ni102   1.877       .  S
O96         Ni97   1.956       .  S
Ni97        O101   1.873       .  S
Ni97         O99   1.841       .  S
O98        Ni103   1.996       .  S
C100        O101   1.266   1_455  A
C100        C504   1.472       .  S
O105       Ni111   1.868       .  S
O105        C126   1.259       .  A
O106       Ni129   1.873       .  S
O106        C115   1.271       .  A
O107       Ni111   1.907       .  S
O107       Ni129   1.891       .  S
O107       Ni123   1.948       .  S
O107        H130   0.966       .  S
C108        O125   1.266       .  A
C108        O117   1.289       .  A
C108        C437   1.468       .  S
O109       Ni128   1.969       .  S
O109        C115   1.291       .  A
O110       Ni128   1.972       .  S
O110        C112   1.282       .  A
Ni111       O114   1.885       .  S
Ni111       O116   1.911       .  S
C112        O122   1.273       .  A
C112        C464   1.530       .  S
O113       Ni129   1.924       .  S
O113        C119   1.269       .  A
O114        C119   1.269       .  A
C115        C424   1.472       .  S
O116        C118   1.268       .  A
O117       Ni128   1.959       .  S
C118        O124   1.284       .  A
C118        C444   1.497       .  S
C119        C474   1.459       .  S
H120        O121   0.967       .  S
O121       Ni129   1.875       .  S
O121       Ni123   1.865       .  S
O121       Ni128   1.886       .  S
O122       Ni123   1.952       .  S
Ni123       O127   1.901       .  S
Ni123       O125   1.851       .  S
O124       Ni129   1.972       .  S
C126        O127   1.245       .  A
C126        C454   1.471       .  S
O131       Ni137   1.909       .  S
O131        C152   1.260   1_565  A
O132       Ni155   1.864       .  S
O132        C141   1.271       .  A
O133       Ni137   1.879       .  S
O133       Ni155   1.872       .  S
O133       Ni149   1.902       .  S
O133        H156   0.966       .  S
C134        O151   1.264       .  A
C134        O143   1.293       .  A
C134        C434   1.471       .  S
O135       Ni154   1.983       .  S
O135        C141   1.297       .  A
O136       Ni154   1.975       .  S
O136        C138   1.284       .  A
Ni137       O140   1.898       .  S
Ni137       O142   1.900       .  S
C138        O148   1.280       .  A
C138        C394   1.546       .  S
O139       Ni155   1.932       .  S
O139        C145   1.279       .  A
O140        C145   1.281       .  A
C141        C574   1.481       .  S
O142        C144   1.255       .  A
O143       Ni154   1.972       .  S
C144        O150   1.279       .  A
C144        C447   1.500       .  S
C145        C404   1.455       .  S
H146        O147   0.967       .  S
O147       Ni155   1.873       .  S
O147       Ni149   1.858       .  S
O147       Ni154   1.876       .  S
O148       Ni149   1.970       .  S
Ni149       O153   1.872       .  S
Ni149       O151   1.841       .  S
O150       Ni155   1.987       .  S
C152        O153   1.262   1_545  A
C152        C414   1.440       .  S
O157       Ni163   1.893       .  S
O157        C178   1.253       .  A
O158       Ni181   1.871       .  S
O158        C167   1.271       .  A
O159       Ni163   1.865       .  S
O159       Ni181   1.859       .  S
O159       Ni175   1.912       .  S
O159        H182   0.966       .  S
C160        O177   1.265       .  A
C160        O169   1.291       .  A
C160        C377   1.472       .  S
O161       Ni180   1.974       .  S
O161        C167   1.293       .  A
O162       Ni180   1.982       .  S
O162        C164   1.284       .  A
Ni163       O166   1.892       .  S
Ni163       O168   1.893       .  S
C164        O174   1.273       .  A
C164        C467   1.534       .  S
O165       Ni181   1.944       .  S
O165        C171   1.287       .  A
O166        C171   1.282       .  A
C167        C364   1.485       .  S
O168        C170   1.253       .  A
O169       Ni180   1.974       .  S
C170        O176   1.279       .  A
C170        C384   1.501       .  S
C171        C477   1.463       .  S
H172        O173   0.967       .  S
O173       Ni181   1.888       .  S
O173       Ni175   1.878       .  S
O173       Ni180   1.886       .  S
O174       Ni175   1.950       .  S
Ni175       O179   1.904       .  S
Ni175       O177   1.840       .  S
O176       Ni181   1.995       .  S
C178        O179   1.257       .  A
C178        C417   1.442       .  S
O183       Ni189   1.930   1_545  S
O183        C204   1.275       .  A
O184       Ni207   1.886       .  S
O184        C193   1.274       .  A
O185       Ni189   1.873       .  S
O185       Ni207   1.883       .  S
O185       Ni201   1.878       .  S
O185        H208   0.966       .  S
C186        O203   1.263       .  A
C186        O195   1.293       .  A
C186        C374   1.475       .  S
O187       Ni206   1.968       .  S
O187        C193   1.293       .  A
O188       Ni206   1.986       .  S
O188        C190   1.284       .  A
Ni189       O192   1.911       .  S
Ni189       O194   1.910       .  S
C190        O200   1.273       .  A
C190        C397   1.538       .  S
O191       Ni207   1.917       .  S
O191        C197   1.276       .  A
O192        C197   1.281       .  A
C193        C517   1.484       .  S
O194        C196   1.262       .  A
O195       Ni206   1.979       .  S
C196        O202   1.281       .  A
C196        C387   1.502       .  S
C197        C407   1.458       .  S
H198        O199   0.967       .  S
O199       Ni207   1.874       .  S
O199       Ni201   1.868       .  S
O199       Ni206   1.876       .  S
O200       Ni201   1.958       .  S
Ni201       O205   1.869       .  S
Ni201       O203   1.835       .  S
O202       Ni207   1.983       .  S
C204        O205   1.261   1_545  A
C204        C457   1.478       .  S
O209       Ni215   1.894       .  S
O209        C230   1.247       .  A
O210       Ni233   1.850       .  S
O210        C219   1.268       .  A
O211       Ni215   1.855       .  S
O211       Ni233   1.863       .  S
O211       Ni227   1.909       .  S
O211        H234   0.965       .  S
C212        O229   1.268       .  A
C212        O221   1.298       .  A
C212        C344   1.481       .  S
O213       Ni232   1.999       .  S
O213        C219   1.302       .  A
O214       Ni232   1.987       .  S
O214        C216   1.285       .  A
Ni215       O218   1.887       .  S
Ni215       O220   1.903       .  S
C216        O226   1.274       .  A
C216        C597   1.538       .  S
O217       Ni233   1.963       .  S
O217        C223   1.289       .  A
O218        C223   1.278       .  A
C219        C334   1.484       .  S
O220        C222   1.245       .  A
O221       Ni232   1.989       .  S
C222        O228   1.280       .  A
C222        C354   1.533       .  S
C223        C607   1.465       .  S
H224        O225   0.967       .  S
O225       Ni233   1.877       .  S
O225       Ni227   1.857       .  S
O225       Ni232   1.868       .  S
O226       Ni227   1.963       .  S
Ni227       O231   1.871       .  S
Ni227       O229   1.853       .  S
O228       Ni233   2.030       .  S
C230        O231   1.260       .  A
C230        C647   1.415       .  S
O235       Ni241   1.868       .  S
O235        C256   1.251       .  A
O236       Ni259   1.864       .  S
O236        C245   1.274       .  A
O237       Ni241   1.876       .  S
O237       Ni259   1.876       .  S
O237       Ni253   1.944       .  S
O237        H260   0.966       .  S
C238        O255   1.269       .  A
C238        O247   1.297       .  A
C238        C347   1.479       .  S
O239       Ni930   1.983   1_554  S
O239        C245   1.298       .  A
O240       Ni258   1.989       .  S
O240        C242   1.283       .  A
Ni241       O244   1.884       .  S
Ni241       O246   1.910       .  S
C242        O252   1.272       .  A
C242        C657   1.540       .  S
O243       Ni259   1.953       .  S
O243        C249   1.281       .  A
O244        C249   1.270       .  A
C245        C367   1.474       .  S
O246        C248   1.259       .  A
O247       Ni258   1.983       .  S
C248        O254   1.283       .  A
C248        C357   1.525       .  S
C249        C664   1.465       .  S
H250        O251   0.967       .  S
O251       Ni259   1.881       .  S
O251       Ni253   1.863       .  S
O251       Ni930   1.871   1_554  S
O252       Ni925   1.947       .  S
Ni253       O257   1.904       .  S
Ni253       O924   1.947   1_554  S
Ni253       O927   1.856   1_554  S
O254       Ni259   2.006       .  S
O255       Ni925   1.856       .  S
C256        O257   1.248       .  A
C256        C587   1.466       .  S
Ni258       O911   1.983       .  S
Ni258       O923   1.871       .  S
O261       Ni267   1.880       .  S
O261        C282   1.258       .  A
O262       Ni285   1.850       .  S
O262        C271   1.265       .  A
O263       Ni267   1.900       .  S
O263       Ni285   1.875       .  S
O263       Ni279   1.921       .  S
O263        H286   0.966       .  S
C264        O281   1.259       .  A
C264        O273   1.295       .  A
C264        C317   1.456       .  S
O265       Ni284   2.000       .  S
O265        C271   1.301       .  A
O266       Ni284   1.974       .  S
O266        C268   1.283       .  A
Ni267       O270   1.882       .  S
Ni267       O272   1.903       .  S
C268        O278   1.285       .  A
C268        C557   1.549       .  S
O269       Ni285   1.933       .  S
O269        C275   1.277       .  A
O270        C275   1.273       .  A
C271        C337   1.496       .  S
O272        C274   1.259       .  A
O273       Ni284   1.998       .  S
C274        O280   1.276       .  A
C274        C324   1.496       .  S
C275        C567   1.458       .  S
H276        O277   0.967       .  S
O277       Ni285   1.870       .  S
O277       Ni279   1.855       .  S
O277       Ni284   1.883       .  S
O278       Ni279   1.987       .  S
Ni279       O283   1.913       .  S
Ni279       O281   1.827       .  S
O280       Ni285   1.976       .  S
C282        O283   1.253       .  A
C282        C507   1.468       .  S
O287       Ni293   1.901       .  S
O287        C308   1.262   1_655  A
O288       Ni311   1.879       .  S
O288        C297   1.275       .  A
O289       Ni293   1.866       .  S
O289       Ni311   1.870       .  S
O289       Ni305   1.911       .  S
O289        H312   0.961       .  S
C290        O307   1.253       .  A
C290        O299   1.292       .  A
C290        C314   1.453       .  S
O291       Ni982   1.975       .  S
O291        C297   1.295       .  A
O292       Ni310   1.968       .  S
O292        C294   1.280       .  A
Ni293       O296   1.907       .  S
Ni293       O298   1.897       .  S
C294        O304   1.281       .  A
C294        C487   1.539       .  S
O295       Ni311   1.916       .  S
O295        C301   1.278       .  A
O296        C301   1.282       .  A
C297        C427   1.485       .  S
O298        C300   1.259       .  A
O299       Ni310   1.993       .  S
C300        O306   1.284       .  A
C300        C327   1.494       .  S
C301        C497   1.457       .  S
H302        O303   0.967       .  S
O303       Ni311   1.876       .  S
O303       Ni305   1.851       .  S
O303       Ni982   1.889       .  S
O304       Ni977   1.988   1_554  S
Ni305       O309   1.890       .  S
Ni305       O976   1.988       .  S
Ni305       O979   1.849       .  S
O306       Ni311   1.987       .  S
O307       Ni977   1.849   1_554  S
C308        O309   1.252   1_455  A
C308        C547   1.434       .  S
Ni310       O963   1.975   1_554  S
Ni310       O975   1.889   1_554  S
C313        C314   1.394       .  A
C313        C318   1.383   1_655  A
C313        F320   1.350       .  S
C314        C315   1.415       .  A
C315        C316   1.408   1_655  A
C315        F322   1.357       .  S
C316        C317   1.405       .  A
C316        F321   1.357       .  S
C317        C318   1.406       .  A
C318        F319   1.358       .  S
C323        C324   1.406       .  A
C323        C328   1.411       .  A
C323        F330   1.357       .  S
C324        C325   1.412       .  A
C325        C326   1.412   1_455  A
C325        F332   1.357       .  S
C326        C327   1.408       .  A
C326        F331   1.357       .  S
C327        C328   1.412   1_655  A
C328        F329   1.356       .  S
C333        C334   1.416       .  A
C333        C338   1.402       .  A
C333        F340   1.358       .  S
C334        C335   1.397       .  A
C335        C336   1.397       .  A
C335        F342   1.358       .  S
C336        C337   1.424       .  A
C336        F341   1.358       .  S
C337        C338   1.403       .  A
C338        F339   1.357       .  S
C343        C344   1.400       .  A
C343        C348   1.395       .  A
C343        F350   1.358       .  S
C344        C345   1.419       .  A
C345        C346   1.395       .  A
C345        F352   1.359       .  S
C346        C347   1.398       .  A
C346        F351   1.358       .  S
C347        C348   1.417       .  A
C348        F349   1.359       .  S
C353        C354   1.422       .  A
C353        C358   1.441       .  A
C353        F360   1.356       .  S
C354        C355   1.418       .  A
C355        C356   1.381       .  A
C355        F362   1.360       .  S
C356        C357   1.408       .  A
C356        F361   1.359       .  S
C357        C358   1.422       .  A
C358        F359   1.356       .  S
C363        C364   1.405       .  A
C363        C368   1.403       .  A
C363        F370   1.358       .  S
C364        C365   1.415       .  A
C365        C366   1.398       .  A
C365        F372   1.358       .  S
C366        C367   1.398       .  A
C366        F371   1.358       .  S
C367        C368   1.409       .  A
C368        F369   1.358       .  S
C373        C374   1.393       .  A
C373        C378   1.396   1_565  A
C373        F380   1.357       .  S
C374        C375   1.421   1_565  A
C375        C376   1.396       .  A
C375        F382   1.359       .  S
C376        C377   1.393       .  A
C376        F381   1.358       .  S
C377        C378   1.420       .  A
C378        F379   1.359       .  S
C383        C384   1.414       .  A
C383        C388   1.413   1_545  A
C383        F390   1.356       .  S
C384        C385   1.407   1_554  A
C385       C1058   1.413       .  A
C385        F392   1.357       .  S
C386        C387   1.413   1_545  A
C386       C1057   1.413       .  A
C386        F391   1.356       .  S
C387       C1060   1.407       .  A
C388       C1059   1.407   1_554  A
C388       F1061   1.357       .  S
F389       C1060   1.357       .  S
C393        C394   1.420       .  A
C393        C398   1.431       .  A
C393        F400   1.357       .  S
C394        C395   1.420       .  A
C395        C396   1.423       .  A
C395        F402   1.357       .  S
C396        C397   1.414       .  A
C396        F401   1.358       .  S
C397        C398   1.418       .  A
C398        F399   1.357       .  S
C403        C408   1.392       .  A
C403       C1076   1.400       .  A
C403        F410   1.358       .  S
C404        C405   1.404       .  A
C404       C1075   1.400   1_554  A
C405        C406   1.394   1_554  A
C405        F412   1.358       .  S
C406       C1079   1.403       .  A
C406        F411   1.358   1_556  S
C407        C408   1.405       .  A
C407       C1078   1.403       .  A
C408        F409   1.358       .  S
C413        C414   1.402       .  A
C413        C418   1.386       .  A
C413        F420   1.359       .  S
C414        C415   1.399       .  A
C415        C416   1.377   1_545  A
C415        F422   1.359   1_545  S
C416        C417   1.406   1_565  A
C416        F421   1.360       .  S
C417        C418   1.408       .  A
C418        F419   1.357       .  S
C423        C424   1.400       .  A
C423        C428   1.400       .  A
C423        F430   1.358       .  S
C424        C425   1.406       .  A
C425        C426   1.400       .  A
C425        F432   1.358       .  S
C426        C427   1.407       .  A
C426        F431   1.358       .  S
C427        C428   1.414       .  A
C428        F429   1.358       .  S
C433        C434   1.419   1_545  A
C433        C438   1.391       .  A
C433        F440   1.359       .  S
C434        C435   1.396       .  A
C435        C436   1.390   1_565  A
C435        F442   1.358       .  S
C436        C437   1.417       .  A
C436        F441   1.359   1_545  S
C437        C438   1.396       .  A
C438        F439   1.358       .  S
C443        C448   1.415   1_545  A
C443       C1116   1.409   1_554  A
C443        F450   1.357       .  S
C444        C445   1.409       .  A
C444       C1115   1.409       .  A
C445        C446   1.408   1_545  A
C445        F452   1.358       .  S
C446       C1119   1.410       .  A
C446        F451   1.358       .  S
C447        C448   1.412       .  A
C447       C1118   1.410   1_554  A
C448        F449   1.358       .  S
C453        C454   1.419       .  A
C453        C458   1.397       .  A
C453        F460   1.355       .  S
C454        C455   1.422       .  A
C455        C456   1.396       .  A
C455        F462   1.358       .  S
C456        C457   1.396       .  A
C456        F461   1.358       .  S
C457        C458   1.398       .  A
C458        F459   1.355       .  S
C463        C464   1.411       .  A
C463        C468   1.422       .  A
C463        F470   1.357       .  S
C464        C465   1.417       .  A
C465        C466   1.427       .  A
C465        F472   1.357       .  S
C466        C467   1.414       .  A
C466        F471   1.357       .  S
C467        C468   1.418       .  A
C468        F469   1.356       .  S
C473        C474   1.408       .  A
C473        C478   1.398       .  A
C473        F480   1.358       .  S
C474       C1147   1.398       .  A
C475        C476   1.394       .  A
C475       C1146   1.398   1_554  A
C475        F482   1.358       .  S
C476        C477   1.408       .  A
C476        F481   1.358       .  S
C477       C1150   1.401       .  A
C478       C1149   1.401       .  A
C478        F479   1.358       .  S
C483        C484   1.416       .  A
C483        C488   1.430       .  A
C483        F490   1.357       .  S
C484        C485   1.415       .  A
C485        C486   1.423       .  A
C485        F492   1.357       .  S
C486        C487   1.415       .  A
C486        F491   1.355       .  S
C487        C488   1.419       .  A
C488        F489   1.357       .  S
C493        C494   1.400       .  A
C493        C498   1.391       .  A
C493        F500   1.358       .  S
C494        C495   1.402       .  A
C495        C496   1.391       .  A
C495        F502   1.358       .  S
C496        C497   1.404       .  A
C496        F501   1.358       .  S
C497        C498   1.404       .  A
C498        F499   1.358       .  S
C503        C504   1.398       .  A
C503        C508   1.396       .  A
C503        F510   1.357       .  S
C504        C505   1.396       .  A
C505        C506   1.391       .  A
C505        F512   1.358       .  S
C506        C507   1.418       .  A
C506        F511   1.360       .  S
C507        C508   1.417       .  A
C508        F509   1.355       .  S
C513        C514   1.410       .  A
C513        C518   1.408       .  A
C513        F520   1.357       .  S
C514        C515   1.418       .  A
C515        C516   1.398       .  A
C515        F522   1.358       .  S
C516        C517   1.400       .  A
C516        F521   1.358       .  S
C517        C518   1.410       .  A
C518        F519   1.358       .  S
C523        C524   1.419       .  A
C523        C528   1.393   1_455  A
C523        F530   1.359       .  S
C524        C525   1.394       .  A
C525        C526   1.392       .  A
C525        F532   1.358       .  S
C526        C527   1.419   1_455  A
C526        F531   1.359       .  S
C527        C528   1.393       .  A
C528        F529   1.357       .  S
C533        C534   1.411       .  A
C533        C538   1.412   1_655  A
C533        F540   1.358       .  S
C534        C535   1.412   1_655  A
C535        C536   1.416       .  A
C535        F542   1.357       .  S
C536        C537   1.410       .  A
C536        F541   1.357       .  S
C537        C538   1.411       .  A
C538        F539   1.358       .  S
C543        C544   1.402       .  A
C543        C548   1.385   1_455  A
C543        F550   1.359   1_455  S
C544        C545   1.410       .  A
C545        C546   1.380       .  A
C545        F552   1.346       .  S
C546        C547   1.390       .  A
C546        F551   1.359       .  S
C547        C548   1.405   1_455  A
C548        F549   1.357       .  S
C553        C554   1.422       .  A
C553        C558   1.416       .  A
C553        F560   1.352       .  S
C554        C555   1.423       .  A
C555        C556   1.440       .  A
C555        F562   1.356       .  S
C556        C557   1.423       .  A
C556        F561   1.357       .  S
C557        C558   1.412       .  A
C558        F559   1.356       .  S
C563        C564   1.398       .  A
C563        C568   1.394       .  A
C563        F570   1.358       .  S
C564        C565   1.408       .  A
C565        C566   1.397       .  A
C565        F572   1.358       .  S
C566        C567   1.398       .  A
C566        F571   1.358       .  S
C567        C568   1.409       .  A
C568        F569   1.359       .  S
C573        C574   1.411       .  A
C573        C578   1.399       .  A
C573        F580   1.358       .  S
C574        C575   1.400       .  A
C575        C576   1.401       .  A
C575        F582   1.358       .  S
C576        C577   1.420       .  A
C576        F581   1.358       .  S
C577        C578   1.407       .  A
C578        F579   1.358       .  S
C583        C584   1.395   1_556  A
C583        C588   1.402   1_556  A
C583        F590   1.355       .  S
C584        C585   1.392       .  A
C585        C586   1.395       .  A
C585        F592   1.353       .  S
C586        C587   1.427       .  A
C586        F591   1.356       .  S
C587        C588   1.420       .  A
C588        F589   1.354   1_554  S
C593        C594   1.421       .  A
C593        C598   1.420       .  A
C593        F600   1.358       .  S
C594        C595   1.420       .  A
C595        C596   1.435       .  A
C595        F602   1.357       .  S
C596        C597   1.420       .  A
C596        F601   1.357       .  S
C597        C598   1.411       .  A
C598        F599   1.358       .  S
C603        C604   1.407       .  A
C603        C608   1.401       .  A
C603        F610   1.358       .  S
C604        C605   1.408       .  A
C605        C606   1.398       .  A
C605        F612   1.358       .  S
C606        C607   1.401       .  A
C606        F611   1.358       .  S
C607        C608   1.408       .  A
C608        F609   1.357       .  S
C613        C614   1.412       .  A
C613        C618   1.401       .  A
C613        F620   1.358       .  S
C614        C615   1.403       .  A
C615        C616   1.401       .  A
C615        F622   1.358       .  S
C616        C617   1.418       .  A
C616        F621   1.358       .  S
C617        C618   1.408       .  A
C618        F619   1.358       .  S
C623        C624   1.423       .  A
C623        C628   1.401       .  A
C623        F630   1.359       .  S
C624        C625   1.393       .  A
C625        C626   1.396       .  A
C625        F632   1.358       .  S
C626        C627   1.423       .  A
C626        F631   1.359       .  S
C627        C628   1.393       .  A
C628        F629   1.357       .  S
C633        C634   1.416       .  A
C633        C638   1.419       .  A
C633        F640   1.356       .  S
C634        C635   1.408       .  A
C635        C636   1.417       .  A
C635        F642   1.356       .  S
C636        C637   1.414       .  A
C636        F641   1.355       .  S
C637        C638   1.409       .  A
C638        F639   1.357       .  S
C643        C644   1.406       .  A
C643        C648   1.369       .  A
C643        F650   1.347       .  S
C644        C645   1.392       .  A
C645        C646   1.375       .  A
C645        F652   1.360       .  S
C646        C647   1.405       .  A
C646        F651   1.354       .  S
C647        C648   1.385       .  A
C648        F649   1.359       .  S
C653        C654   1.425       .  A
C653        C658   1.440       .  A
C653        F660   1.356       .  S
C654        C655   1.419       .  A
C655        C656   1.410       .  A
C655        F662   1.353       .  S
C656        C657   1.409       .  A
C656        F661   1.359       .  S
C657        C658   1.420       .  A
C658        F659   1.356       .  S
C663        C664   1.409       .  A
C663        C668   1.399       .  A
C663        F670   1.358       .  S
C664        C665   1.401       .  A
C665        C666   1.396       .  A
C665        F672   1.358       .  S
C666        C667   1.409       .  A
C666        F671   1.358       .  S
C667        C668   1.402       .  A
C668        F669   1.358       .  S
O673       Ni679   1.891       .  S
O673        C694   1.250       .  A
O674       Ni697   1.874       .  S
O674        C683   1.274       .  A
O675       Ni679   1.870       .  S
O675       Ni697   1.853       .  S
O675       Ni691   1.911       .  S
O675        H698   0.965       .  S
C676        O693   1.261       .  A
C676        O685   1.296       .  A
C676       C1296   1.480       .  S
O677       Ni696   1.982       .  S
O677        C683   1.297       .  A
O678       Ni696   1.986       .  S
O678        C680   1.283       .  A
Ni679       O682   1.894       .  S
Ni679       O684   1.896       .  S
C680        O690   1.276       .  A
C680       C1326   1.554       .  S
O681       Ni697   1.952       .  S
O681        C687   1.290       .  A
O682        C687   1.282       .  A
C683       C1289   1.496       .  S
O684        C686   1.253       .  A
O685       Ni696   1.996       .  S
C686        O692   1.284       .  A
C686       C1306   1.513       .  S
C687       C1339   1.470       .  S
H688        O689   0.967       .  S
O689       Ni697   1.889       .  S
O689       Ni691   1.864       .  S
O689       Ni696   1.883       .  S
O690       Ni691   1.960       .  S
Ni691       O695   1.886       .  S
Ni691       O693   1.833       .  S
O692       Ni697   2.009       .  S
C694        O695   1.253       .  A
C694       C1316   1.412       .  S
O699       Ni705   1.941       .  S
O699        C720   1.279       .  A
O700       Ni723   1.874       .  S
O700        C709   1.274       .  A
O701       Ni705   1.870       .  S
O701       Ni723   1.865       .  S
O701       Ni717   1.870       .  S
O701        H724   0.966       .  S
C702        O719   1.262       .  A
C702        O711   1.293       .  A
C702       C1299   1.480       .  S
O703        C709   1.298       .  A
O704       Ni722   1.997       .  S
O704        C706   1.288       .  A
Ni705       O708   1.921       .  S
Ni705       O710   1.910       .  S
C706        O716   1.272       .  A
C706       C1266   1.548       .  S
O707       Ni723   1.924       .  S
O707        C713   1.280       .  A
O708        C713   1.284       .  A
C709       C1249   1.494       .  S
O710        C712   1.262       .  A
O711       Ni722   1.982       .  S
C712        O718   1.285       .  A
C712       C1309   1.513       .  S
C713       C1276   1.470       .  S
H714        O715   0.967       .  S
O715       Ni723   1.876       .  S
O715       Ni717   1.856       .  S
Ni717       O721   1.840       .  S
O718       Ni723   1.997       .  S
C720        O721   1.260       .  A
C720       C1256   1.487       .  S
O725       Ni731   1.879       .  S
O725        C746   1.263       .  A
O726       Ni749   1.870       .  S
O726        C735   1.273       .  A
O727       Ni731   1.898       .  S
O727       Ni749   1.888       .  S
O727       Ni743   1.932       .  S
O727        H750   0.966       .  S
C728        O745   1.268       .  A
C728        O737   1.294       .  A
C728       C1196   1.471       .  S
O729        C735   1.299       .  A
O730       Ni748   1.994       .  S
O730        C732   1.286       .  A
Ni731       O734   1.892       .  S
Ni731       O736   1.907       .  S
C732        O742   1.275       .  A
C732       C1226   1.559       .  S
O733       Ni749   1.928       .  S
O733        C739   1.272       .  A
O734        C739   1.271       .  A
C735       C1186   1.498       .  S
O736        C738   1.263       .  A
O737       Ni748   1.974       .  S
C738        O744   1.285       .  A
C738       C1209   1.502       .  S
C739       C1236   1.459       .  S
H740        O741   0.967       .  S
O741       Ni749   1.866       .  S
O741       Ni743   1.856       .  S
Ni743       O747   1.885       .  S
O744       Ni749   1.985       .  S
C746        O747   1.252       .  A
C746       C1216   1.449       .  S
O751       Ni757   1.924       .  S
O751        C772   1.270   1_655  A
O752       Ni775   1.876       .  S
O752        C761   1.274       .  A
O753       Ni757   1.863       .  S
O753       Ni775   1.869       .  S
O753       Ni769   1.878       .  S
O753        H776   0.966       .  S
C754        O771   1.265       .  A
C754        O763   1.291       .  A
C754       C1199   1.470       .  S
O755       Ni774   1.975       .  S
O755        C761   1.296       .  A
O756       Ni774   1.981       .  S
O756        C758   1.285       .  A
Ni757       O760   1.899       .  S
Ni757       O762   1.900       .  S
C758        O768   1.276       .  A
C758       C1156   1.537       .  S
O759       Ni775   1.927       .  S
O759        C765   1.279       .  A
O760        C765   1.282       .  A
C761       C1286   1.488       .  S
O762        C764   1.256       .  A
O763       Ni774   1.969       .  S
C764        O770   1.283       .  A
C764       C1206   1.503       .  S
C765       C1166   1.449       .  S
H766        O767   0.967       .  S
O767       Ni775   1.874       .  S
O767       Ni769   1.864       .  S
O767       Ni774   1.877       .  S
O768       Ni769   1.956       .  S
Ni769       O773   1.872       .  S
Ni769       O771   1.841       .  S
O770       Ni775   1.996       .  S
C772        O773   1.266   1_455  A
C772       C1176   1.472       .  S
O777       Ni783   1.868       .  S
O777        C798   1.259       .  A
O778       Ni801   1.873       .  S
O778        C787   1.271       .  A
O779       Ni783   1.907       .  S
O779       Ni801   1.891       .  S
O779       Ni795   1.948       .  S
O779        H802   0.966       .  S
C780        O797   1.266       .  A
C780        O789   1.289       .  A
C780       C1109   1.468       .  S
O781       Ni800   1.969       .  S
O781        C787   1.291       .  A
O782       Ni800   1.972       .  S
O782        C784   1.282       .  A
Ni783       O786   1.885       .  S
Ni783       O788   1.911       .  S
C784        O794   1.273       .  A
C784       C1136   1.530       .  S
O785       Ni801   1.924       .  S
O785        C791   1.269       .  A
O786        C791   1.269       .  A
C787       C1096   1.472       .  S
O788        C790   1.268       .  A
O789       Ni800   1.959       .  S
C790        O796   1.284       .  A
C790       C1116   1.496       .  S
C791       C1146   1.458       .  S
H792        O793   0.967       .  S
O793       Ni801   1.875       .  S
O793       Ni795   1.865       .  S
O793       Ni800   1.886       .  S
O794       Ni795   1.952       .  S
Ni795       O799   1.901       .  S
Ni795       O797   1.851       .  S
O796       Ni801   1.972       .  S
C798        O799   1.245       .  A
C798       C1126   1.471       .  S
O803       Ni809   1.909       .  S
O803        C824   1.260   1_565  A
O804       Ni827   1.864       .  S
O804        C813   1.271       .  A
O805       Ni809   1.879       .  S
O805       Ni827   1.872       .  S
O805       Ni821   1.901       .  S
O805        H828   0.966       .  S
C806        O823   1.264       .  A
C806        O815   1.293       .  A
C806       C1106   1.471       .  S
O807       Ni826   1.983       .  S
O807        C813   1.297       .  A
O808       Ni826   1.975       .  S
O808        C810   1.284       .  A
Ni809       O812   1.898       .  S
Ni809       O814   1.900       .  S
C810        O820   1.280       .  A
C810       C1066   1.546       .  S
O811       Ni827   1.932       .  S
O811        C817   1.279       .  A
O812        C817   1.281       .  A
C813       C1246   1.481       .  S
O814        C816   1.255       .  A
O815       Ni826   1.972       .  S
C816        O822   1.279       .  A
C816       C1119   1.500       .  S
C817       C1076   1.455       .  S
H818        O819   0.967       .  S
O819       Ni827   1.873       .  S
O819       Ni821   1.858       .  S
O819       Ni826   1.876       .  S
O820       Ni821   1.970       .  S
Ni821       O825   1.872       .  S
Ni821       O823   1.841       .  S
O822       Ni827   1.987       .  S
C824        O825   1.262   1_545  A
C824       C1086   1.440       .  S
O829       Ni835   1.893       .  S
O829        C850   1.253       .  A
O830       Ni853   1.871       .  S
O830        C839   1.270       .  A
O831       Ni835   1.866       .  S
O831       Ni853   1.859       .  S
O831       Ni847   1.912       .  S
O831        H854   0.965       .  S
C832        O849   1.265       .  A
C832        O841   1.291       .  A
C832       C1049   1.472       .  S
O833       Ni852   1.974       .  S
O833        C839   1.293       .  A
O834       Ni852   1.982       .  S
O834        C836   1.284       .  A
Ni835       O838   1.892       .  S
Ni835       O840   1.893       .  S
C836        O846   1.273       .  A
C836       C1139   1.534       .  S
O837       Ni853   1.944       .  S
O837        C843   1.287       .  A
O838        C843   1.282       .  A
C839       C1036   1.485       .  S
O840        C842   1.253       .  A
O841       Ni852   1.973       .  S
C842        O848   1.279       .  A
C842       C1056   1.501       .  S
C843       C1149   1.463       .  S
H844        O845   0.967       .  S
O845       Ni853   1.888       .  S
O845       Ni847   1.878       .  S
O845       Ni852   1.886       .  S
O846       Ni847   1.950       .  S
Ni847       O851   1.905       .  S
Ni847       O849   1.840       .  S
O848       Ni853   1.995       .  S
C850        O851   1.257       .  A
C850       C1089   1.443       .  S
O855       Ni861   1.930   1_545  S
O855        C876   1.275       .  A
O856       Ni879   1.886       .  S
O856        C865   1.274       .  A
O857       Ni861   1.873       .  S
O857       Ni879   1.883       .  S
O857       Ni873   1.879       .  S
O857        H880   0.966       .  S
C858        O875   1.263       .  A
C858        O867   1.293       .  A
C858       C1046   1.475       .  S
O859       Ni878   1.968       .  S
O859        C865   1.293       .  A
O860       Ni878   1.985       .  S
O860        C862   1.284       .  A
Ni861       O864   1.911       .  S
Ni861       O866   1.910       .  S
C862        O872   1.273       .  A
C862       C1069   1.538       .  S
O863       Ni879   1.916       .  S
O863        C869   1.276       .  A
O864        C869   1.281       .  A
C865       C1189   1.484       .  S
O866        C868   1.262       .  A
O867       Ni878   1.979       .  S
C868        O874   1.281       .  A
C868       C1059   1.502       .  S
C869       C1079   1.458       .  S
H870        O871   0.967       .  S
O871       Ni879   1.874       .  S
O871       Ni873   1.868       .  S
O871       Ni878   1.876       .  S
O872       Ni873   1.958       .  S
Ni873       O877   1.869       .  S
Ni873       O875   1.835       .  S
O874       Ni879   1.983       .  S
C876        O877   1.261   1_545  A
C876       C1129   1.478       .  S
O881       Ni887   1.894       .  S
O881        C902   1.247       .  A
O882       Ni905   1.850       .  S
O882        C891   1.268       .  A
O883       Ni887   1.855       .  S
O883       Ni905   1.863       .  S
O883       Ni899   1.909       .  S
O883        H906   0.965       .  S
C884        O901   1.268       .  A
C884        O893   1.298       .  A
C884       C1016   1.481       .  S
O885       Ni904   1.999       .  S
O885        C891   1.302       .  A
O886       Ni904   1.987       .  S
O886        C888   1.285       .  A
Ni887       O890   1.887       .  S
Ni887       O892   1.903       .  S
C888        O898   1.274       .  A
C888       C1269   1.538       .  S
O889       Ni905   1.963       .  S
O889        C895   1.289       .  A
O890        C895   1.278       .  A
C891       C1006   1.484       .  S
O892        C894   1.245       .  A
O893       Ni904   1.989       .  S
C894        O900   1.280       .  A
C894       C1026   1.533       .  S
C895       C1279   1.465       .  S
H896        O897   0.967       .  S
O897       Ni905   1.877       .  S
O897       Ni899   1.857       .  S
O897       Ni904   1.868       .  S
O898       Ni899   1.963       .  S
Ni899       O903   1.872       .  S
Ni899       O901   1.853       .  S
O900       Ni905   2.030       .  S
C902        O903   1.260       .  A
C902       C1319   1.415       .  S
O907       Ni913   1.867       .  S
O907        C928   1.252       .  A
O908       Ni931   1.864       .  S
O908        C917   1.274       .  A
O909       Ni913   1.876       .  S
O909       Ni931   1.876       .  S
O909       Ni925   1.944       .  S
O909        H932   0.966       .  S
C910        O927   1.269       .  A
C910        O919   1.297       .  A
C910       C1019   1.479       .  S
O911        C917   1.298       .  A
O912       Ni930   1.989       .  S
O912        C914   1.283       .  A
Ni913       O916   1.884       .  S
Ni913       O918   1.911       .  S
C914        O924   1.272       .  A
C914       C1329   1.540       .  S
O915       Ni931   1.953       .  S
O915        C921   1.281       .  A
O916        C921   1.270       .  A
C917       C1039   1.473       .  S
O918        C920   1.259       .  A
O919       Ni930   1.983       .  S
C920        O926   1.283       .  A
C920       C1029   1.525       .  S
C921       C1336   1.465       .  S
H922        O923   0.967       .  S
O923       Ni931   1.881       .  S
O923       Ni925   1.863       .  S
Ni925       O929   1.904       .  S
O926       Ni931   2.006       .  S
C928        O929   1.248       .  A
C928       C1259   1.466       .  S
O933       Ni939   1.880       .  S
O933        C954   1.258       .  A
O934       Ni957   1.850       .  S
O934        C943   1.265       .  A
O935       Ni939   1.900       .  S
O935       Ni957   1.875       .  S
O935       Ni951   1.921       .  S
O935        H958   0.966       .  S
C936        O953   1.259       .  A
C936        O945   1.295       .  A
C936        C989   1.456       .  S
O937       Ni956   2.000       .  S
O937        C943   1.301       .  A
O938       Ni956   1.974       .  S
O938        C940   1.283       .  A
Ni939       O942   1.882       .  S
Ni939       O944   1.903       .  S
C940        O950   1.285       .  A
C940       C1229   1.549       .  S
O941       Ni957   1.933       .  S
O941        C947   1.277       .  A
O942        C947   1.273       .  A
C943       C1009   1.496       .  S
O944        C946   1.259       .  A
O945       Ni956   1.998       .  S
C946        O952   1.276       .  A
C946        C996   1.496       .  S
C947       C1239   1.458       .  S
H948        O949   0.967       .  S
O949       Ni957   1.870       .  S
O949       Ni951   1.855       .  S
O949       Ni956   1.883       .  S
O950       Ni951   1.987       .  S
Ni951       O955   1.913       .  S
Ni951       O953   1.827       .  S
O952       Ni957   1.976       .  S
C954        O955   1.253       .  A
C954       C1179   1.468       .  S
O959       Ni965   1.901       .  S
O959        C980   1.262   1_655  A
O960       Ni983   1.879       .  S
O960        C969   1.275       .  A
O961       Ni965   1.866       .  S
O961       Ni983   1.870       .  S
O961       Ni977   1.911       .  S
O961        H984   0.961       .  S
C962        O979   1.253       .  A
C962        O971   1.292       .  A
C962        C986   1.453       .  S
O963        C969   1.295       .  A
O964       Ni982   1.968       .  S
O964        C966   1.280       .  A
Ni965       O968   1.907       .  S
Ni965       O970   1.897       .  S
C966        O976   1.281       .  A
C966       C1159   1.539       .  S
O967       Ni983   1.916       .  S
O967        C973   1.278       .  A
O968        C973   1.282       .  A
C969       C1099   1.486       .  S
O970        C972   1.259       .  A
O971       Ni982   1.993       .  S
C972        O978   1.284       .  A
C972        C999   1.494       .  S
C973       C1169   1.457       .  S
H974        O975   0.967       .  S
O975       Ni983   1.876       .  S
O975       Ni977   1.851       .  S
Ni977       O981   1.890   1_556  S
O978       Ni983   1.987       .  S
C980        O981   1.252   1_456  A
C980       C1219   1.434       .  S
C985        C986   1.394       .  A
C985        C990   1.383   1_655  A
C985        F992   1.350       .  S
C986        C987   1.415       .  A
C987        C988   1.408   1_655  A
C987        F994   1.357       .  S
C988        C989   1.405       .  A
C988        F993   1.357       .  S
C989        C990   1.406       .  A
C990        F991   1.358       .  S
C995        C996   1.406       .  A
C995       C1000   1.411       .  A
C995       F1002   1.357       .  S
C996        C997   1.412       .  A
C997        C998   1.412   1_455  A
C997       F1004   1.357       .  S
C998        C999   1.408       .  A
C998       F1003   1.357       .  S
C999       C1000   1.412   1_655  A
C1000      F1001   1.356       .  S
C1005      C1006   1.416       .  A
C1005      C1010   1.402       .  A
C1005      F1012   1.358       .  S
C1006      C1007   1.397       .  A
C1007      C1008   1.397       .  A
C1007      F1014   1.358       .  S
C1008      C1009   1.424       .  A
C1008      F1013   1.358       .  S
C1009      C1010   1.403       .  A
C1010      F1011   1.357       .  S
C1015      C1016   1.400       .  A
C1015      C1020   1.395       .  A
C1015      F1022   1.358       .  S
C1016      C1017   1.419       .  A
C1017      C1018   1.395       .  A
C1017      F1024   1.359       .  S
C1018      C1019   1.398       .  A
C1018      F1023   1.358       .  S
C1019      C1020   1.417       .  A
C1020      F1021   1.359       .  S
C1025      C1026   1.422       .  A
C1025      C1030   1.441       .  A
C1025      F1032   1.356       .  S
C1026      C1027   1.418       .  A
C1027      C1028   1.381       .  A
C1027      F1034   1.360       .  S
C1028      C1029   1.408       .  A
C1028      F1033   1.359       .  S
C1029      C1030   1.422       .  A
C1030      F1031   1.356       .  S
C1035      C1036   1.405       .  A
C1035      C1040   1.403       .  A
C1035      F1042   1.358       .  S
C1036      C1037   1.415       .  A
C1037      C1038   1.398       .  A
C1037      F1044   1.358       .  S
C1038      C1039   1.398       .  A
C1038      F1043   1.358       .  S
C1039      C1040   1.409       .  A
C1040      F1041   1.358       .  S
C1045      C1046   1.393       .  A
C1045      C1050   1.396   1_565  A
C1045      F1052   1.357       .  S
C1046      C1047   1.421   1_565  A
C1047      C1048   1.396       .  A
C1047      F1054   1.359       .  S
C1048      C1049   1.393       .  A
C1048      F1053   1.358       .  S
C1049      C1050   1.419       .  A
C1050      F1051   1.359       .  S
C1055      C1056   1.414       .  A
C1055      C1060   1.413   1_545  A
C1055      F1062   1.356       .  S
C1056      C1057   1.407       .  A
C1057      F1064   1.357       .  S
C1058      C1059   1.413   1_545  A
C1058      F1063   1.356       .  S
C1065      C1066   1.420       .  A
C1065      C1070   1.431       .  A
C1065      F1072   1.357       .  S
C1066      C1067   1.420       .  A
C1067      C1068   1.423       .  A
C1067      F1074   1.357       .  S
C1068      C1069   1.414       .  A
C1068      F1073   1.358       .  S
C1069      C1070   1.418       .  A
C1070      F1071   1.357       .  S
C1075      C1080   1.392       .  A
C1075      F1082   1.358       .  S
C1076      C1077   1.404       .  A
C1077      C1078   1.394       .  A
C1077      F1084   1.358       .  S
C1078      F1083   1.358       .  S
C1079      C1080   1.405       .  A
C1080      F1081   1.358       .  S
C1085      C1086   1.402       .  A
C1085      C1090   1.386       .  A
C1085      F1092   1.359       .  S
C1086      C1087   1.399       .  A
C1087      C1088   1.377   1_545  A
C1087      F1094   1.359   1_545  S
C1088      C1089   1.407   1_565  A
C1088      F1093   1.360       .  S
C1089      C1090   1.408       .  A
C1090      F1091   1.357       .  S
C1095      C1096   1.400       .  A
C1095      C1100   1.400       .  A
C1095      F1102   1.358       .  S
C1096      C1097   1.406       .  A
C1097      C1098   1.400       .  A
C1097      F1104   1.358       .  S
C1098      C1099   1.407       .  A
C1098      F1103   1.358       .  S
C1099      C1100   1.414       .  A
C1100      F1101   1.358       .  S
C1105      C1106   1.419   1_545  A
C1105      C1110   1.391       .  A
C1105      F1112   1.359       .  S
C1106      C1107   1.396       .  A
C1107      C1108   1.390   1_565  A
C1107      F1114   1.358       .  S
C1108      C1109   1.417       .  A
C1108      F1113   1.359   1_545  S
C1109      C1110   1.396       .  A
C1110      F1111   1.358       .  S
C1115      C1120   1.415   1_545  A
C1115      F1122   1.357       .  S
C1116      C1117   1.409       .  A
C1117      C1118   1.408   1_545  A
C1117      F1124   1.358       .  S
C1118      F1123   1.358       .  S
C1119      C1120   1.413       .  A
C1120      F1121   1.358       .  S
C1125      C1126   1.419       .  A
C1125      C1130   1.397       .  A
C1125      F1132   1.355       .  S
C1126      C1127   1.422       .  A
C1127      C1128   1.396       .  A
C1127      F1134   1.358       .  S
C1128      C1129   1.396       .  A
C1128      F1133   1.358       .  S
C1129      C1130   1.398       .  A
C1130      F1131   1.355       .  S
C1135      C1136   1.411       .  A
C1135      C1140   1.422       .  A
C1135      F1142   1.357       .  S
C1136      C1137   1.417       .  A
C1137      C1138   1.427       .  A
C1137      F1144   1.357       .  S
C1138      C1139   1.414       .  A
C1138      F1143   1.357       .  S
C1139      C1140   1.418       .  A
C1140      F1141   1.356       .  S
C1145      C1146   1.408       .  A
C1145      C1150   1.398   1_556  A
C1145      F1152   1.358       .  S
C1147      C1148   1.394       .  A
C1147      F1154   1.358       .  S
C1148      C1149   1.408       .  A
C1148      F1153   1.358       .  S
C1150      F1151   1.358   1_554  S
C1155      C1156   1.416       .  A
C1155      C1160   1.430       .  A
C1155      F1162   1.357       .  S
C1156      C1157   1.415       .  A
C1157      C1158   1.423       .  A
C1157      F1164   1.357       .  S
C1158      C1159   1.415       .  A
C1158      F1163   1.355       .  S
C1159      C1160   1.419       .  A
C1160      F1161   1.357       .  S
C1165      C1166   1.400       .  A
C1165      C1170   1.391       .  A
C1165      F1172   1.358       .  S
C1166      C1167   1.402       .  A
C1167      C1168   1.391       .  A
C1167      F1174   1.358       .  S
C1168      C1169   1.404       .  A
C1168      F1173   1.358       .  S
C1169      C1170   1.404       .  A
C1170      F1171   1.358       .  S
C1175      C1176   1.398       .  A
C1175      C1180   1.396       .  A
C1175      F1182   1.357       .  S
C1176      C1177   1.396       .  A
C1177      C1178   1.391       .  A
C1177      F1184   1.358       .  S
C1178      C1179   1.418       .  A
C1178      F1183   1.360       .  S
C1179      C1180   1.417       .  A
C1180      F1181   1.355       .  S
C1185      C1186   1.410       .  A
C1185      C1190   1.408       .  A
C1185      F1192   1.357       .  S
C1186      C1187   1.417       .  A
C1187      C1188   1.398       .  A
C1187      F1194   1.358       .  S
C1188      C1189   1.400       .  A
C1188      F1193   1.358       .  S
C1189      C1190   1.410       .  A
C1190      F1191   1.358       .  S
C1195      C1196   1.419       .  A
C1195      C1200   1.394   1_455  A
C1195      F1202   1.359       .  S
C1196      C1197   1.394       .  A
C1197      C1198   1.392       .  A
C1197      F1204   1.358       .  S
C1198      C1199   1.419   1_455  A
C1198      F1203   1.359       .  S
C1199      C1200   1.393       .  A
C1200      F1201   1.357       .  S
C1205      C1206   1.411       .  A
C1205      C1210   1.412   1_655  A
C1205      F1212   1.358       .  S
C1206      C1207   1.412   1_655  A
C1207      C1208   1.416       .  A
C1207      F1214   1.357       .  S
C1208      C1209   1.410       .  A
C1208      F1213   1.357       .  S
C1209      C1210   1.411       .  A
C1210      F1211   1.358       .  S
C1215      C1216   1.402       .  A
C1215      C1220   1.385   1_456  A
C1215      F1222   1.359   1_456  S
C1216      C1217   1.410       .  A
C1217      C1218   1.380       .  A
C1217      F1224   1.346       .  S
C1218      C1219   1.390       .  A
C1218      F1223   1.359       .  S
C1219      C1220   1.405   1_456  A
C1220      F1221   1.357       .  S
C1225      C1226   1.422       .  A
C1225      C1230   1.416       .  A
C1225      F1232   1.352       .  S
C1226      C1227   1.423       .  A
C1227      C1228   1.440       .  A
C1227      F1234   1.356       .  S
C1228      C1229   1.423       .  A
C1228      F1233   1.357       .  S
C1229      C1230   1.412       .  A
C1230      F1231   1.356       .  S
C1235      C1236   1.398       .  A
C1235      C1240   1.394       .  A
C1235      F1242   1.358       .  S
C1236      C1237   1.408       .  A
C1237      C1238   1.397       .  A
C1237      F1244   1.358       .  S
C1238      C1239   1.398       .  A
C1238      F1243   1.358       .  S
C1239      C1240   1.409       .  A
C1240      F1241   1.359       .  S
C1245      C1246   1.411       .  A
C1245      C1250   1.399       .  A
C1245      F1252   1.358       .  S
C1246      C1247   1.400       .  A
C1247      C1248   1.401       .  A
C1247      F1254   1.358       .  S
C1248      C1249   1.420       .  A
C1248      F1253   1.358       .  S
C1249      C1250   1.407       .  A
C1250      F1251   1.358       .  S
C1255      C1256   1.395       .  A
C1255      C1260   1.402       .  A
C1255      F1262   1.355       .  S
C1256      C1257   1.392       .  A
C1257      C1258   1.395       .  A
C1257      F1264   1.353       .  S
C1258      C1259   1.427       .  A
C1258      F1263   1.356       .  S
C1259      C1260   1.420       .  A
C1260      F1261   1.354       .  S
C1265      C1266   1.421       .  A
C1265      C1270   1.420       .  A
C1265      F1272   1.358       .  S
C1266      C1267   1.420       .  A
C1267      C1268   1.435       .  A
C1267      F1274   1.357       .  S
C1268      C1269   1.420       .  A
C1268      F1273   1.357       .  S
C1269      C1270   1.411       .  A
C1270      F1271   1.358       .  S
C1275      C1276   1.407       .  A
C1275      C1280   1.401       .  A
C1275      F1282   1.358       .  S
C1276      C1277   1.408       .  A
C1277      C1278   1.398       .  A
C1277      F1284   1.358       .  S
C1278      C1279   1.401       .  A
C1278      F1283   1.358       .  S
C1279      C1280   1.408       .  A
C1280      F1281   1.357       .  S
C1285      C1286   1.412       .  A
C1285      C1290   1.401       .  A
C1285      F1292   1.358       .  S
C1286      C1287   1.403       .  A
C1287      C1288   1.401       .  A
C1287      F1294   1.358       .  S
C1288      C1289   1.418       .  A
C1288      F1293   1.358       .  S
C1289      C1290   1.408       .  A
C1290      F1291   1.358       .  S
C1295      C1296   1.423       .  A
C1295      C1300   1.401       .  A
C1295      F1302   1.359       .  S
C1296      C1297   1.393       .  A
C1297      C1298   1.396       .  A
C1297      F1304   1.358       .  S
C1298      C1299   1.423       .  A
C1298      F1303   1.359       .  S
C1299      C1300   1.393       .  A
C1300      F1301   1.357       .  S
C1305      C1306   1.416       .  A
C1305      C1310   1.419       .  A
C1305      F1312   1.356       .  S
C1306      C1307   1.408       .  A
C1307      C1308   1.417       .  A
C1307      F1314   1.356       .  S
C1308      C1309   1.414       .  A
C1308      F1313   1.355       .  S
C1309      C1310   1.409       .  A
C1310      F1311   1.357       .  S
C1315      C1316   1.406       .  A
C1315      C1320   1.369       .  A
C1315      F1322   1.347       .  S
C1316      C1317   1.392       .  A
C1317      C1318   1.375       .  A
C1317      F1324   1.360       .  S
C1318      C1319   1.406       .  A
C1318      F1323   1.354       .  S
C1319      C1320   1.385       .  A
C1320      F1321   1.359       .  S
C1325      C1326   1.425       .  A
C1325      C1330   1.440       .  A
C1325      F1332   1.356       .  S
C1326      C1327   1.419       .  A
C1327      C1328   1.410       .  A
C1327      F1334   1.353       .  S
C1328      C1329   1.409       .  A
C1328      F1333   1.359       .  S
C1329      C1330   1.420       .  A
C1330      F1331   1.356       .  S
C1335      C1336   1.409       .  A
C1335      C1340   1.399       .  A
C1335      F1342   1.358       .  S
C1336      C1337   1.401       .  A
C1337      C1338   1.396       .  A
C1337      F1344   1.358       .  S
C1338      C1339   1.409       .  A
C1338      F1343   1.358       .  S
C1339      C1340   1.402       .  A
C1340      F1341   1.358       .  S
