geometry optimzed in LAMMPS
_audit_creation_date              2020-12-01 
_audit_creation_method            'lammps2cif' 
_symmetry_space_group_name_H-M    'P1' 
_symmetry_Int_Tables_number       1 
_symmetry_cell_setting            triclinic 
loop_ 
_symmetry_equiv_pos_as_xyz 
  x,y,z 
_cell_length_a                    36.92286135 
_cell_length_b                    37.04646264754566 
_cell_length_c                    51.51201189167445 
_cell_angle_alpha                 90.29747772977097 
_cell_angle_beta                  89.62634833724063 
_cell_angle_gamma                 120.03390442025209 
loop_ 
_atom_site_label 
_atom_site_type_symbol 
_atom_site_fract_x 
_atom_site_fract_y 
_atom_site_fract_z 
_atom_site_charge 
Zn1        Zn  0.60284392  0.08954060  0.47846947     1.49700
Zn2        Zn  0.57342059  0.12386237  0.02424152     1.49400
Zn3        Zn  0.51461631  0.07934171  0.47269358     1.49100
Zn4        Zn  0.53096381  0.02836182  0.01396965     1.49500
O5          O  0.55218178  0.08194648  0.99810705    -1.83600
O6          O  0.64298171  0.15020956  0.47688339    -0.74300
O7          O  0.55447435  0.16369556  0.01656496    -0.74100
O8          O  0.53488812  0.07705490  0.43669308    -0.73600
O9          O  0.63613225  0.15912196  0.02286244    -0.74300
O10         O  0.59100404  0.06996033  0.44122368    -0.73900
O11         O  0.51007023  0.13152211  0.47688651    -0.74500
O12         O  0.47347263  0.98734549  0.99407259    -0.73900
O13         O  0.55325000  0.09936983  0.05929937    -0.74600
O14         O  0.45854866  0.02675329  0.47632449    -0.74000
O15         O  0.51373447  0.03146314  0.05085097    -0.74500
O16         O  0.58574022  0.02405643  0.02172337    -0.74400
O17         O  0.63347220  0.06957902  0.50066733    -0.74200
C18         C  0.65479426  0.17671849  0.00189114     0.77600
C19         C  0.52366837  0.15880772  0.49495509     0.78100
C20         C  0.56344474  0.07118961  0.42703935     0.77100
C21         C  0.44898093  0.98998453  0.48324395     0.77400
C22         C  0.52858050  0.06213701  0.06659852     0.78600
C23         C  0.62434731  0.05074409  0.01643220     0.77600
Zn24       Zn  0.50950680  0.02404531  0.26634983     1.49700
Zn25       Zn  0.57603617  0.07851472  0.22308314     1.49400
Zn26       Zn  0.49433179  0.08214853  0.22788305     1.49100
Zn27       Zn  0.55580185  0.12109552  0.27077494     1.49500
O28         O  0.53498267  0.07534093  0.24696547    -1.83600
O29         O  0.52680126  0.98176223  0.24815073    -0.74300
O30         O  0.55360078  0.07409026  0.18709866    -0.74100
O31         O  0.44421622  0.06021848  0.25062905    -0.73600
O32         O  0.58344572  0.02836211  0.22675821    -0.74300
O33         O  0.44981011  0.01574775  0.27722121    -0.73900
O34         O  0.48757894  0.05906712  0.19157206    -0.74500
O35         O  0.53004581  0.15763674  0.26619161    -0.73900
O36         O  0.63102555  0.13270759  0.22780434    -0.74600
O37         O  0.51080920  0.14266785  0.22506507    -0.74000
O38         O  0.61462920  0.15871598  0.26181990    -0.74500
O39         O  0.55396070  0.10238828  0.30760250    -0.74400
O40         O  0.53611275  0.03592717  0.30174488    -0.74200
C41         C  0.56028331  0.99106887  0.23482260     0.77600
C42         C  0.51782914  0.06316277  0.17736339     0.78100
C43         C  0.43251365  0.03724631  0.27072061     0.77100
C44         C  0.51972301  0.16665942  0.24464803     0.77400
C45         C  0.64078943  0.16115729  0.24489587     0.78600
C46         C  0.54801183  0.06771172  0.31634854     0.77600
Zn47       Zn  0.59457106  0.48392648  0.01370045     1.49700
Zn48       Zn  0.56699506  0.40216671  0.47325447     1.49400
Zn49       Zn  0.54640533  0.39260377  0.02555478     1.49100
Zn50       Zn  0.49929792  0.42521783  0.48645333     1.49500
O51         O  0.54698145  0.42299428  0.49983646    -1.83600
O52         O  0.65186806  0.49137286  0.00850372    -0.74300
O53         O  0.53952671  0.34052995  0.47603899    -0.74100
O54         O  0.56209428  0.41847196  0.06064129    -0.73600
O55         O  0.62764961  0.42436433  0.47838682    -0.74300
O56         O  0.58562544  0.48540457  0.05253395    -0.73900
O57         O  0.56910740  0.35484507  0.01737643    -0.74500
O58         O  0.44517428  0.37593399  0.50611861    -0.73900
O59         O  0.55398086  0.41410568  0.43843461    -0.74600
O60         O  0.48664992  0.35370633  0.02749356    -0.74000
O61         O  0.49384209  0.41189077  0.44727923    -0.74500
O62         O  0.51818323  0.48989889  0.48511090    -0.74400
O63         O  0.58816694  0.52791078  0.99572476    -0.74200
C64         C  0.65473118  0.45325115  0.49263820     0.77600
C65         C  0.56087499  0.33572021  0.99570194     0.78100
C66         C  0.57406141  0.45534844  0.06843892     0.77100
C67         C  0.45221515  0.34931269  0.01970297     0.77400
C68         C  0.52055068  0.41269543  0.43102884     0.78600
C69         C  0.55519651  0.52250624  0.48452171     0.77600
Zn70       Zn  0.51406280  0.39484997  0.22554832     1.49700
Zn71       Zn  0.57443593  0.41153669  0.27346219     1.49400
Zn72       Zn  0.59946799  0.47614731  0.23085942     1.49100
Zn73       Zn  0.52762796  0.46211360  0.27018564     1.49500
O74         O  0.55172958  0.43504547  0.25015526    -1.83600
O75         O  0.51231094  0.33884067  0.22918971    -0.74300
O76         O  0.63761531  0.43948986  0.26992098    -0.74100
O77         O  0.58555770  0.48219397  0.19399518    -0.73600
O78         O  0.55390615  0.35269585  0.26319706    -0.74300
O79         O  0.53368945  0.41709439  0.18936777    -0.73900
O80         O  0.64360743  0.46026016  0.22913230    -0.74500
O81         O  0.58039080  0.52127877  0.28060504    -0.73900
O82         O  0.55523343  0.41178522  0.31009275    -0.74600
O83         O  0.62858780  0.52856859  0.25157004    -0.74000
O84         O  0.51109402  0.43562217  0.30595407    -0.74500
O85         O  0.46996534  0.44746552  0.25090425    -0.74400
O86         O  0.45737310  0.39028667  0.22889208    -0.74200
C87         C  0.53148728  0.32818518  0.24526224     0.77600
C88         C  0.65889588  0.45266822  0.24902384     0.78100
C89         C  0.55963668  0.45235025  0.17964433     0.77100
C90         C  0.61859308  0.54020647  0.27232677     0.77400
C91         C  0.52821851  0.41983213  0.31976847     0.78600
C92         C  0.44522584  0.41521533  0.23695458     0.77600
Zn93       Zn  0.94397296  0.43908714  0.26438084     1.49700
Zn94       Zn  0.84612526  0.40210908  0.26930349     1.49400
Zn95       Zn  0.89253419  0.45757656  0.22117243     1.49100
Zn96       Zn  0.88116195  0.37024798  0.22690567     1.49500
O97         O  0.89199733  0.41919498  0.24584602    -1.83600
O98         O  0.93567611  0.45447676  0.30067090    -0.74300
O99         O  0.81541086  0.43213298  0.26211351    -0.74100
O100        O  0.94508580  0.51207759  0.22513329    -0.73600
O101        O  0.86677737  0.41412415  0.30621724    -0.74300
O102        O  0.98878453  0.49656771  0.24548627    -0.73900
O103        O  0.84114036  0.46412386  0.22450384    -0.74500
O104        O  0.90566476  0.38395604  0.19091941    -0.73900
O105        O  0.80294646  0.34211725  0.26258691    -0.74600
O106        O  0.89742992  0.43899709  0.18535605    -0.74000
O107        O  0.81999839  0.33236866  0.22308480    -0.74500
O108        O  0.89779373  0.33703766  0.24934979    -0.74400
O109        O  0.94844658  0.38477196  0.27402866    -0.74200
C110        C  0.90336414  0.43772297  0.31526228     0.77600
C111        C  0.81424134  0.45273124  0.24281048     0.78100
C112        C  0.98199120  0.52241031  0.23235927     0.77100
C113        C  0.90607071  0.41201704  0.17648787     0.77400
C114        C  0.79449740  0.32005519  0.24199280     0.78600
C115        C  0.92272580  0.34620372  0.26835672     0.77600
Zn116      Zn  0.89084740  0.47478734  0.47814605     1.49700
Zn117      Zn  0.85465622  0.41911845  0.02389793     1.49400
Zn118      Zn  0.89471556  0.39375213  0.47372016     1.49100
Zn119      Zn  0.95147761  0.46706879  0.01700774     1.49500
O120        O  0.89774385  0.43446437  0.49780303    -1.83600
O121        O  0.83138019  0.46049870  0.47849035    -0.74300
O122        O  0.81245164  0.36127652  0.01459153    -0.74100
O123        O  0.89787276  0.41402468  0.43702016    -0.73600
O124        O  0.82500412  0.45261763  0.02352456    -0.74300
O125        O  0.90772394  0.47814198  0.44058095    -0.73900
O126        O  0.84075630  0.33874197  0.47812220    -0.74500
O127        O  0.99303849  0.45099900  0.99691105    -0.73900
O128        O  0.87563116  0.41636503  0.05901579    -0.74600
O129        O  0.94502342  0.38770483  0.47802345    -0.74000
O130        O  0.94342162  0.44034043  0.05206572    -0.74500
O131        O  0.95757362  0.52608023  0.02781741    -0.74400
O132        O  0.91567777  0.52793510  0.49775804    -0.74200
C133        C  0.81282198  0.46143602  0.00268343     0.77600
C134        C  0.81045301  0.32880058  0.49386558     0.78100
C135        C  0.90469747  0.44813618  0.42676630     0.77100
C136        C  0.98248906  0.41140707  0.48566888     0.77400
C137        C  0.91130284  0.42363066  0.06675983     0.78600
C138        C  0.93718667  0.54386771  0.01990712     0.77600
Zn139      Zn  0.55823511  0.72815635  0.13996783     1.49700
Zn140      Zn  0.56011901  0.81022467  0.14644871     1.49400
Zn141      Zn  0.51802674  0.74897501  0.18822867     1.49100
Zn142      Zn  0.61470942  0.79268887  0.18516028     1.49500
O143        O  0.56431072  0.76842808  0.16507594    -1.83600
O144        O  0.56515014  0.75318370  0.10393383    -0.74300
O145        O  0.50041512  0.79187552  0.14109699    -0.74100
O146        O  0.47821833  0.68963051  0.18035120    -0.73600
O147        O  0.58576945  0.82006256  0.11118462    -0.74300
O148        O  0.50174585  0.67415532  0.14464812    -0.73900
O149        O  0.48432543  0.77746651  0.18267236    -0.74500
O150        O  0.60144195  0.76467798  0.22036476    -0.73900
O151        O  0.57981913  0.85950957  0.16951785    -0.74600
O152        O  0.53665845  0.75262603  0.22481430    -0.74000
O153        O  0.62329471  0.85279156  0.19636724    -0.74500
O154        O  0.65543399  0.77437935  0.16570369    -0.74400
O155        O  0.60723086  0.71927956  0.14341820    -0.74200
C156        C  0.57934646  0.79045071  0.09581442     0.77600
C157        C  0.47621756  0.78569617  0.16020779     0.78100
C158        C  0.47389146  0.66418754  0.16233616     0.77100
C159        C  0.56957459  0.75533002  0.23455964     0.77400
C160        C  0.60291012  0.87119614  0.18952520     0.78600
C161        C  0.64480619  0.74162449  0.15138532     0.77600
Zn162      Zn  0.51905808  0.73580202  0.44218198     1.49700
Zn163      Zn  0.61534633  0.77282597  0.43258378     1.49400
Zn164      Zn  0.54539847  0.70404695  0.39685088     1.49100
Zn165      Zn  0.56114494  0.79305684  0.39285184     1.49500
O166        O  0.56190340  0.75376808  0.41630387    -1.83600
O167        O  0.54340314  0.75536891  0.47717962    -0.74300
O168        O  0.61824281  0.71724073  0.43972092    -0.74100
O169        O  0.48377844  0.66661682  0.39866676    -0.73600
O170        O  0.61198099  0.79025951  0.46952019    -0.74300
O171        O  0.47921513  0.67391832  0.44113237    -0.73900
O172        O  0.56505937  0.67114035  0.41560689    -0.74500
O173        O  0.55964928  0.77353482  0.35614470    -0.73900
O174        O  0.65892106  0.82939929  0.41276657    -0.74600
O175        O  0.56193281  0.71477177  0.35947235    -0.74000
O176        O  0.61477361  0.84744346  0.39567115    -0.74500
O177        O  0.51001828  0.79862213  0.39908044    -0.74400
O178        O  0.48329061  0.75965543  0.43436214    -0.74200
C179        C  0.58085591  0.77805925  0.48490690     0.77600
C180        C  0.59179881  0.67921541  0.43331935     0.78100
C181        C  0.46454868  0.65360602  0.42014855     0.77100
C182        C  0.56214897  0.74347914  0.34592256     0.77400
C183        C  0.65200795  0.85635984  0.40115091     0.78600
C184        C  0.48199111  0.78266679  0.41671452     0.77600
Zn185      Zn  0.18108078  0.35767678  0.43841066     1.49700
Zn186      Zn  0.16463470  0.41543139  0.40033251     1.49400
Zn187      Zn  0.22452840  0.45400070  0.44332222     1.49100
Zn188      Zn  0.24721266  0.41448952  0.39519146     1.49500
O189        O  0.20551435  0.40900884  0.41921537    -1.83600
O190        O  0.12138712  0.34913227  0.44939067    -0.74300
O191        O  0.17918806  0.47527986  0.39912429    -0.74100
O192        O  0.22521856  0.43497801  0.47927019    -0.73600
O193        O  0.11262921  0.38997840  0.42135681    -0.74300
O194        O  0.20923034  0.36912191  0.47357766    -0.73900
O195        O  0.19351508  0.48574160  0.44073545    -0.74500
O196        O  0.30124888  0.46914645  0.40138015    -0.73900
O197        O  0.15953038  0.39549806  0.36366074    -0.74600
O198        O  0.28282411  0.49516407  0.43461831    -0.74000
O199        O  0.22604847  0.41227491  0.35885183    -0.74500
O200        O  0.25433216  0.36410154  0.39726173    -0.74400
O201        O  0.19725804  0.31624428  0.41805298    -0.74200
C202        C  0.10155221  0.36755821  0.44166678     0.77600
C203        C  0.18380672  0.49640370  0.41964672     0.78100
C204        C  0.22186595  0.40136819  0.48792900     0.77100
C205        C  0.30957800  0.49801137  0.41793045     0.77400
C206        C  0.19017818  0.40134993  0.34928657     0.78600
C207        C  0.23035140  0.32624967  0.40411438     0.77600
Zn208      Zn  0.23309115  0.45649572  0.19289372     1.49700
Zn209      Zn  0.17430847  0.40993434  0.14484758     1.49400
Zn210      Zn  0.26373799  0.42384359  0.14939370     1.49100
Zn211      Zn  0.19353939  0.35856824  0.18665123     1.49500
O212        O  0.21423531  0.41113964  0.16873437    -1.83600
O213        O  0.20593071  0.48975764  0.18480196    -0.74300
O214        O  0.19230889  0.40574326  0.10866533    -0.74100
O215        O  0.30345263  0.48520125  0.14765487    -0.73600
O216        O  0.17054580  0.46242233  0.14824850    -0.74300
O217        O  0.29505030  0.49818594  0.18861102    -0.73900
O218        O  0.25042184  0.40222124  0.11275927    -0.74500
O219        O  0.24750404  0.35298971  0.19471169    -0.73900
O220        O  0.11859536  0.35778429  0.14919024    -0.74600
O221        O  0.29565381  0.40497278  0.17071101    -0.74000
O222        O  0.13548789  0.31423063  0.16809293    -0.74500
O223        O  0.17903576  0.36603608  0.22345587    -0.74400
O224        O  0.21835462  0.43482028  0.22922263    -0.74200
C225        C  0.18459183  0.49054570  0.16579074     0.77600
C226        C  0.22096283  0.40025671  0.09892067     0.78100
C227        C  0.31600588  0.50881970  0.16749401     0.77100
C228        C  0.28613027  0.37855063  0.18883539     0.77400
C229        C  0.10879580  0.32082040  0.15577304     0.78600
C230        C  0.19513352  0.39817419  0.23807375     0.77600
Zn231      Zn  0.20855642  0.72076723  0.19192023     1.49700
Zn232      Zn  0.16552568  0.75663524  0.15140895     1.49400
Zn233      Zn  0.25933114  0.81061157  0.17446413     1.49100
Zn234      Zn  0.23334494  0.73477273  0.13705982     1.49500
O235        O  0.21511612  0.75693647  0.16373014    -1.83600
O236        O  0.14911303  0.68782528  0.19871364    -0.74300
O237        O  0.18388296  0.82088992  0.14818685    -0.74100
O238        O  0.25591277  0.81735351  0.21376057    -0.73600
O239        O  0.11371579  0.70879282  0.17430517    -0.74300
O240        O  0.23319487  0.75147988  0.22507316    -0.73900
O241        O  0.25287809  0.85371148  0.15450344    -0.74500
O242        O  0.29433396  0.75910490  0.14019746    -0.73900
O243        O  0.15736807  0.74136092  0.11212177    -0.74600
O244        O  0.31429377  0.81320609  0.16646111    -0.74000
O245        O  0.21780569  0.74480616  0.10248488    -0.74500
O246        O  0.20746527  0.67338561  0.14142165    -0.74400
O247        O  0.22134393  0.67521099  0.18320762    -0.74200
C248        C  0.11456228  0.68367265  0.19146136     0.77600
C249        C  0.22044183  0.85390774  0.14620124     0.78100
C250        C  0.24655064  0.78944132  0.23106897     0.77100
C251        C  0.32276545  0.78941911  0.15298886     0.77400
C252        C  0.18394664  0.74279717  0.09545370     0.78600
C253        C  0.21036561  0.65565753  0.16165964     0.77600
Zn254      Zn  0.18332575  0.72599448  0.38600627     1.49700
Zn255      Zn  0.26790203  0.80221564  0.39364599     1.49400
Zn256      Zn  0.19666204  0.79359123  0.43217773     1.49100
Zn257      Zn  0.23856256  0.73912335  0.43652075     1.49500
O258        O  0.21865392  0.76410036  0.41232063    -1.83600
O259        O  0.20609513  0.74861578  0.34969840    -0.74300
O260        O  0.29850267  0.85237923  0.41485724    -0.74100
O261        O  0.13911805  0.77922900  0.41239965    -0.73600
O262        O  0.25824422  0.81285583  0.35711739    -0.74300
O263        O  0.12873986  0.72480854  0.38776185    -0.73900
O264        O  0.25184942  0.85235142  0.44235920    -0.74500
O265        O  0.22138206  0.74235949  0.47316268    -0.73900
O266        O  0.30821033  0.78176287  0.39225881    -0.74600
O267        O  0.17871201  0.76764254  0.46838858    -0.74000
O268        O  0.30070937  0.76244228  0.43333618    -0.74500
O269        O  0.21270237  0.67931930  0.42778587    -0.74400
O270        O  0.17506920  0.66756670  0.39208060    -0.74200
C271        C  0.23339707  0.78472547  0.34153055     0.77600
C272        C  0.29021619  0.86710652  0.43485010     0.78100
C273        C  0.11578842  0.74833821  0.39702953     0.77100
C274        C  0.19482510  0.75120614  0.48258138     0.77400
C275        C  0.32220661  0.77355775  0.41243966     0.78600
C276        C  0.18912963  0.65462451  0.41022430     0.77600
Zn277      Zn  0.18251189  0.07598696  0.35363380     1.49700
Zn278      Zn  0.27987636  0.12668055  0.35295494     1.49400
Zn279      Zn  0.22905988  0.06288235  0.30573444     1.49100
Zn280      Zn  0.22439717  0.14283415  0.31247586     1.49500
O281        O  0.23036163  0.10132391  0.33126140    -1.83600
O282        O  0.19830363  0.07597070  0.39037214    -0.74300
O283        O  0.32331328  0.11096867  0.33499043    -0.74100
O284        O  0.17451716  0.00712743  0.30797540    -0.73600
O285        O  0.26614441  0.09917138  0.38872937    -0.74300
O286        O  0.14466410  0.01714446  0.34289192    -0.73900
O287        O  0.27924635  0.05651583  0.31077223    -0.74500
O288        O  0.24650125  0.15099705  0.27557798    -0.73900
O289        O  0.28809891  0.18674392  0.36312177    -0.74600
O290        O  0.23629862  0.08720235  0.26960600    -0.74000
O291        O  0.24712843  0.19384732  0.33447335    -0.74500
O292        O  0.16427893  0.12675896  0.31055940    -0.74400
O293        O  0.14852630  0.10394687  0.35098251    -0.74200
C294        C  0.23186762  0.08350442  0.40153106     0.77600
C295        C  0.31560120  0.07927462  0.32038503     0.78100
C296        C  0.14445004  0.99438079  0.32429263     0.77100
C297        C  0.24551067  0.12285555  0.26070540     0.77400
C298        C  0.26948567  0.20608796  0.35480046     0.78600
C299        C  0.14101295  0.11802757  0.33054982     0.77600
Zn300      Zn  0.23758475  0.14524074  0.09272337     1.49700
Zn301      Zn  0.27450210  0.09008709  0.06496313     1.49400
Zn302      Zn  0.20042150  0.05609812  0.10907797     1.49100
Zn303      Zn  0.18231364  0.06739285  0.05534836     1.49500
O304        O  0.22668347  0.09161816  0.08005383    -1.83600
O305        O  0.28819383  0.18847555  0.07244679    -0.74300
O306        O  0.27671280  0.03813493  0.08365831    -0.74100
O307        O  0.21627769  0.08480718  0.14333293    -0.73600
O308        O  0.32232394  0.15452889  0.06267675    -0.74300
O309        O  0.25017479  0.15154822  0.13225008    -0.73900
O310        O  0.22132847  0.01803210  0.10927810    -0.74500
O311        O  0.14286948  0.00721537  0.06341718    -0.73900
O312        O  0.26407966  0.07610205  0.02573924    -0.74600
O313        O  0.13845456  0.01774099  0.10531399    -0.74000
O314        O  0.20236784  0.07095749  0.01908391    -0.74500
O315        O  0.14870188  0.09505710  0.05908326    -0.74400
O316        O  0.18401334  0.14780430  0.08668807    -0.74200
C317        C  0.32023911  0.18844739  0.06274586     0.77600
C318        C  0.24919202  0.01156299  0.09971659     0.78100
C319        C  0.23768278  0.12304814  0.14951491     0.77100
C320        C  0.12398795  0.99524850  0.08508885     0.77400
C321        C  0.23531112  0.07232729  0.01037926     0.78600
C322        C  0.15155073  0.12473474  0.07306552     0.77600
Zn323      Zn  0.87777174  0.69490703  0.32060017     1.49700
Zn324      Zn  0.83080674  0.73880196  0.34886810     1.49400
Zn325      Zn  0.92241618  0.77550447  0.36092518     1.49100
Zn326      Zn  0.90243451  0.78685051  0.30731773     1.49500
O327        O  0.88237571  0.74634131  0.33420678    -1.83600
O328        O  0.81085597  0.65129423  0.31829783    -0.74300
O329        O  0.82895271  0.73251622  0.38826110    -0.74100
O330        O  0.95192361  0.74558845  0.36682451    -0.73600
O331        O  0.78282054  0.68990157  0.33117612    -0.74300
O332        O  0.92560273  0.68853838  0.34194256    -0.73900
O333        O  0.89650326  0.77573306  0.39466264    -0.74500
O334        O  0.96475254  0.82530880  0.30885728    -0.73900
O335        O  0.82918030  0.79146643  0.34251818    -0.74600
O336        O  0.96939103  0.83245342  0.35143735    -0.74000
O337        O  0.87738079  0.82286757  0.31157201    -0.74500
O338        O  0.89072949  0.76023929  0.27311178    -0.74400
O339        O  0.89370655  0.70291325  0.28116035    -0.74200
C340        C  0.77916993  0.65727557  0.32026056     0.77600
C341        C  0.85950947  0.75440644  0.40342354     0.78100
C342        C  0.95277176  0.71374609  0.35873045     0.77100
C343        C  0.98559709  0.84376807  0.32901337     0.77400
C344        C  0.85011282  0.82187502  0.32716664     0.78600
C345        C  0.89339714  0.72912091  0.26515513     0.77600
Zn346      Zn  0.82866768  0.74798903  0.06456341     1.49700
Zn347      Zn  0.88587191  0.78750058  0.10957480     1.49400
Zn348      Zn  0.84418221  0.69125558  0.10351276     1.49100
Zn349      Zn  0.91285252  0.75127687  0.06187503     1.49500
O350        O  0.86921435  0.74332557  0.08497757    -1.83600
O351        O  0.84150658  0.80708249  0.06341635    -0.74300
O352        O  0.88331158  0.76631194  0.14563567    -0.74100
O353        O  0.78310708  0.68146233  0.11304051    -0.73600
O354        O  0.85475948  0.81927298  0.10527476    -0.74300
O355        O  0.77536183  0.72118563  0.08378396    -0.73900
O356        O  0.87115756  0.70191564  0.13929963    -0.74500
O357        O  0.92046698  0.70125672  0.06325991    -0.73900
O358        O  0.94523066  0.82985138  0.10264865    -0.74600
O359        O  0.86208146  0.65163691  0.08225394    -0.74000
O360        O  0.96602078  0.80597379  0.06957292    -0.74500
O361        O  0.89456760  0.75290869  0.02515577    -0.74400
O362        O  0.82637832  0.73003802  0.02763432    -0.74200
C363        C  0.84506050  0.82850342  0.08359985     0.77600
C364        C  0.88174600  0.73335189  0.15414721     0.78100
C365        C  0.76293153  0.69883412  0.10407050     0.77100
C366        C  0.89578087  0.66294615  0.06860729     0.77400
C367        C  0.97314950  0.83419026  0.08634797     0.78600
C368        C  0.85936642  0.74108142  0.01428158     0.77600
Zn369      Zn  0.91593037  0.12575518  0.30757045     1.49700
Zn370      Zn  0.84503400  0.10816404  0.35022176     1.49400
Zn371      Zn  0.84158784  0.03865905  0.31216425     1.49100
Zn372      Zn  0.90205408  0.06843320  0.35660387     1.49500
O373        O  0.87689029  0.08766071  0.33198403    -1.83600
O374        O  0.92021057  0.18105856  0.31171131    -0.74300
O375        O  0.78612369  0.05286098  0.35852956    -0.74100
O376        O  0.83415760  0.05019328  0.27483607    -0.73600
O377        O  0.86039870  0.16647140  0.33144520    -0.74300
O378        O  0.89569601  0.10795522  0.27116641    -0.73900
O379        O  0.78978524  0.00646513  0.33256648    -0.74500
O380        O  0.87598500  0.00588876  0.35450182    -0.73900
O381        O  0.86698499  0.12386193  0.38705146    -0.74600
O382        O  0.86413676  0.99983984  0.31241078    -0.74000
O383        O  0.89836656  0.08663261  0.39282338    -0.74500
O384        O  0.96200219  0.09216462  0.34722161    -0.74400
O385        O  0.97174652  0.13013259  0.31170146    -0.74200
C386        C  0.89444696  0.19231199  0.31911292     0.77600
C387        C  0.77318371  0.01470163  0.35167975     0.78100
C388        C  0.86208084  0.07951261  0.26104072     0.77100
C389        C  0.86760135  0.98457419  0.33370444     0.77400
C390        C  0.88463679  0.10967328  0.40171875     0.78600
C391        C  0.98496605  0.11478158  0.32869874     0.77600
Zn392      Zn  0.86105201  0.12484587  0.10051516     1.49700
Zn393      Zn  0.90396733  0.06940257  0.10296728     1.49400
Zn394      Zn  0.84544638  0.05845234  0.05500654     1.49100
Zn395      Zn  0.93113082  0.13660722  0.06209199     1.49500
O396        O  0.88309302  0.09584947  0.08051126    -1.83600
O397        O  0.84472338  0.09798034  0.13586840    -0.74300
O398        O  0.87621411  0.00897306  0.09409343    -0.74100
O399        O  0.79091074  0.05766499  0.05761210    -0.73600
O400        O  0.88867348  0.07350069  0.14003701    -0.74300
O401        O  0.80461346  0.11344645  0.08165428    -0.73900
O402        O  0.83686882  0.00019433  0.05943686    -0.74500
O403        O  0.91785681  0.14677480  0.02613904    -0.73900
O404        O  0.96661721  0.09312566  0.09739540    -0.74600
O405        O  0.86813187  0.08081701  0.01924199    -0.74000
O406        O  0.97253014  0.11807781  0.05782816    -0.74500
O407        O  0.96239077  0.18578506  0.08505456    -0.74400
O408        O  0.91350428  0.18359528  0.11150116    -0.74200
C409        C  0.86242707  0.08276376  0.14963283     0.77600
C410        C  0.85148154  0.98594423  0.07637228     0.78100
C411        C  0.77986851  0.08281258  0.06668871     0.77100
C412        C  0.89422284  0.11716263  0.01090774     0.77400
C413        C  0.98776623  0.10797644  0.07650968     0.78600
C414        C  0.95224978  0.19923548  0.10492563     0.77600
C415        C  0.92686917  0.13116798  0.44181948    -0.05300
C416        C  0.88815584  0.11835969  0.42996529     0.00600
C417        C  0.85273556  0.10883843  0.44560711    -0.07900
C418        C  0.85688958  0.10994776  0.47277167    -0.05300
C419        C  0.89517412  0.12102736  0.48464222     0.00600
C420        C  0.93122297  0.13324176  0.46901681    -0.07900
C421        C  0.85102224  0.15446165  0.98225568     0.62500
H422        H  0.95352832  0.13843492  0.42949156     0.13200
H423        H  0.82986539  0.10116363  0.48509404     0.13200
C424        C  0.81027737  0.09561019  0.43379339     0.62800
F425        F  0.00384999  0.15487092  0.46215718    -0.22400
F426        F  0.87671966  0.18731071  0.99835558    -0.19700
F427        F  0.81995812  0.12293492  0.99699846    -0.19400
F428        F  0.79797111  0.06093825  0.41817527    -0.19500
F429        F  0.81263323  0.12788540  0.41913418    -0.19800
F430        F  0.77972955  0.08555904  0.45258901    -0.22500
C431        C  0.83846654  0.04242701  0.21882836    -0.05300
C432        C  0.85649087  0.08034640  0.23261212     0.00600
C433        C  0.87102162  0.11831042  0.21879908    -0.07900
C434        C  0.87014826  0.11710624  0.19156752    -0.05300
C435        C  0.85552832  0.07966668  0.17789562     0.00600
C436        C  0.83790566  0.04148028  0.19147535    -0.07900
C437        C  0.81845840  0.00019839  0.17704886     0.62500
H438        H  0.82664858  0.01363092  0.22959800     0.13200
H439        H  0.88301363  0.14588907  0.18063869     0.13200
C440        C  0.88803331  0.16021154  0.23241530     0.62800
F441        F  0.79923354  0.96662940  0.19382708    -0.22400
F442        F  0.84890255  0.99687857  0.16325219    -0.19700
F443        F  0.78856399  0.99788179  0.15999414    -0.19400
F444        F  0.92775465  0.17318579  0.24170955    -0.19500
F445        F  0.86200011  0.15706142  0.25278827    -0.19800
F446        F  0.89065373  0.19062049  0.21572329    -0.22500
C447        C  0.84982708  0.88653608  0.05728538    -0.05300
C448        C  0.83973986  0.86556224  0.08128082     0.00600
C449        C  0.82609735  0.88111181  0.10214740    -0.07900
C450        C  0.82768082  0.91954630  0.09904030    -0.05300
C451        C  0.84105785  0.94198914  0.07574945     0.00600
C452        C  0.85064910  0.92462145  0.05410212    -0.07900
C453        C  0.86380993  0.94722526  0.02823235     0.62500
H454        H  0.85902470  0.87383614  0.04123701     0.13200
H455        H  0.82008095  0.93335437  0.11526401     0.13200
C456        C  0.81002234  0.85778284  0.12762501     0.62800
F457        F  0.89889555  0.98611947  0.03148965    -0.22400
F458        F  0.83157763  0.95187229  0.01847293    -0.19700
F459        F  0.87331065  0.92554827  0.01003054    -0.19400
F460        F  0.84296157  0.86049388  0.14180401    -0.19500
F461        F  0.78115069  0.81634607  0.12282370    -0.19800
F462        F  0.79040580  0.87415331  0.14263764    -0.22500
C463        C  0.84141945  0.91644420  0.31168083    -0.05300
C464        C  0.86032222  0.94123429  0.33387510     0.00600
C465        C  0.87132067  0.92383858  0.35495100    -0.07900
C466        C  0.86394205  0.88295048  0.35245488    -0.05300
C467        C  0.84731962  0.85969420  0.32977334     0.00600
C468        C  0.83515723  0.87599349  0.30915591    -0.07900
C469        C  0.81532870  0.85047141  0.28482533     0.62500
H470        H  0.83208723  0.92917899  0.29591607     0.13200
H471        H  0.87314553  0.86931780  0.36779251     0.13200
C472        C  0.89192408  0.94792791  0.37966179     0.62800
F473        F  0.80270979  0.87089407  0.26787935    -0.22400
F474        F  0.78055300  0.81297229  0.29159290    -0.19700
F475        F  0.84361480  0.84264014  0.27189170    -0.19400
F476        F  0.86486645  0.95725224  0.39284397    -0.19500
F477        F  0.92849714  0.98427665  0.37356605    -0.19800
F478        F  0.90224902  0.92531695  0.39636342    -0.22500
C479        C  0.82442854  0.71619286  0.44383190    -0.05300
C480        C  0.85326483  0.75397595  0.43189780     0.00600
C481        C  0.87851102  0.78943263  0.44761402    -0.07900
C482        C  0.87712218  0.78447352  0.47460014    -0.05300
C483        C  0.85061071  0.74609976  0.48636597     0.00600
C484        C  0.82255606  0.71164962  0.47105610    -0.07900
C485        C  0.78951906  0.67495728  0.98071785     0.62500
H486        H  0.80485698  0.68963777  0.43163701     0.13200
H487        H  0.89769736  0.81060791  0.48683694     0.13200
C488        C  0.90714577  0.83251581  0.43633076     0.62800
F489        F  0.76526960  0.64734908  0.96145474    -0.22400
F490        F  0.76454034  0.68615554  0.99467948    -0.19700
F491        F  0.80294131  0.65436235  0.99685789    -0.19400
F492        F  0.88666972  0.84096469  0.41697174    -0.19500
F493        F  0.94299508  0.83463896  0.42631130    -0.19800
F494        F  0.91915131  0.86338121  0.45503360    -0.22500
C495        C  0.92033548  0.76447791  0.22349529    -0.05300
C496        C  0.89752625  0.72627606  0.23654681     0.00600
C497        C  0.87557502  0.68917752  0.22177660    -0.07900
C498        C  0.87245984  0.69255649  0.19463463    -0.05300
C499        C  0.89144962  0.73153649  0.18201495     0.00600
C500        C  0.91821662  0.76796523  0.19654458    -0.07900
C501        C  0.94421067  0.81081303  0.18421513     0.62500
H502        H  0.93854827  0.79245757  0.23493186     0.13200
H503        H  0.85369936  0.66473570  0.18321878     0.13200
C504        C  0.85527272  0.64654305  0.23442178     0.62800
F505        F  0.97454941  0.83884107  0.20098914    -0.22400
F506        F  0.91875933  0.82683586  0.17768359    -0.19700
F507        F  0.96450492  0.80802210  0.16227357    -0.19400
F508        F  0.82568431  0.64271516  0.25241291    -0.19500
F509        F  0.88557481  0.64142750  0.24672395    -0.19800
F510        F  0.83566235  0.61474507  0.21639862    -0.22500
C511        C  0.09423301  0.12797398  0.05124572    -0.05300
C512        C  0.11389214  0.12891480  0.07459766     0.00600
C513        C  0.09254343  0.12394505  0.09835957    -0.07900
C514        C  0.05162302  0.11721940  0.09788826    -0.05300
C515        C  0.03125307  0.11531913  0.07453123     0.00600
C516        C  0.05327757  0.12144603  0.05058101    -0.07900
C517        C  0.03395514  0.11980331  0.02425436     0.62500
H518        H  0.11107864  0.13111169  0.03332915     0.13200
H519        H  0.03511431  0.11323844  0.11603290     0.13200
C520        C  0.11253680  0.12472093  0.12409955     0.62800
F521        F  0.05974177  0.12215585  0.00389805    -0.22400
F522        F  0.02708655  0.15306683  0.02183875    -0.19700
F523        F  0.99658988  0.08267379  0.02165381    -0.19400
F524        F  0.14720026  0.16377372  0.12759463    -0.19500
F525        F  0.12450178  0.09479522  0.12427160    -0.19800
F526        F  0.08555969  0.11682614  0.14484465    -0.22500
C527        C  0.08772898  0.91927232  0.07837412    -0.05300
C528        C  0.08561375  0.95431100  0.08666056     0.00600
C529        C  0.04720607  0.94978157  0.09528733    -0.07900
C530        C  0.01164844  0.90987314  0.09489499    -0.05300
C531        C  0.01328763  0.87447657  0.08639458     0.00600
C532        C  0.05224596  0.87905734  0.07838375    -0.07900
C533        C  0.05698367  0.84203670  0.07056131     0.62500
H534        H  0.11770857  0.92377006  0.07195223     0.13200
H535        H  0.98185479  0.90621501  0.10092745     0.13200
C536        C  0.04348916  0.98705266  0.10406304     0.62800
F537        F  0.03672077  0.82560626  0.04732382    -0.22400
F538        F  0.04018784  0.81178788  0.08964080    -0.19700
F539        F  0.09855434  0.85319037  0.06729348    -0.19400
F540        F  0.05782712  0.01680699  0.08466235    -0.19500
F541        F  0.06691574  0.00417202  0.12622650    -0.19800
F542        F  0.00253613  0.97608409  0.10972962    -0.22500
C543        C  0.03649586  0.90819175  0.30621086    -0.05300
C544        C  0.02866909  0.87950787  0.32620698     0.00600
C545        C  0.06182401  0.88574250  0.34288984    -0.07900
C546        C  0.10044946  0.92295372  0.34066702    -0.05300
C547        C  0.10721923  0.95275083  0.32176214     0.00600
C548        C  0.07546722  0.94490338  0.30367592    -0.07900
C549        C  0.08240512  0.97606621  0.28248429     0.62500
H550        H  0.01124016  0.90244174  0.29318431     0.13200
H551        H  0.12536931  0.92971492  0.35424107     0.13200
C552        C  0.05708063  0.85308234  0.36248342     0.62800
F553        F  0.04770085  0.96228164  0.26671224    -0.22400
F554        F  0.11585749  0.98227386  0.26708592    -0.19700
F555        F  0.09089873  0.01365557  0.29345600    -0.19400
F556        F  0.04027518  0.81455277  0.35047740    -0.19500
F557        F  0.03126337  0.85098470  0.38267231    -0.19800
F558        F  0.09522728  0.86223765  0.37292558    -0.22500
C559        C  0.27002562  0.09257931  0.44300081    -0.05300
C560        C  0.23134590  0.07570822  0.43007032     0.00600
C561        C  0.19374408  0.05387837  0.44496788    -0.07900
C562        C  0.19677094  0.05284261  0.47207604    -0.05300
C563        C  0.23528934  0.07230485  0.48505284     0.00600
C564        C  0.27275503  0.09108564  0.47023783    -0.07900
C565        C  0.31541437  0.11052577  0.48294946     0.62500
H566        H  0.29852115  0.10821993  0.43163139     0.13200
H567        H  0.16843333  0.03756907  0.48364465     0.13200
C568        C  0.15017265  0.03203499  0.43301043     0.62800
F569        F  0.34767746  0.12957057  0.46506793    -0.22400
F570        F  0.33027052  0.10566541  0.99413969    -0.19700
F571        F  0.30876134  0.15292546  0.99857083    -0.19400
F572        F  0.14800753  0.00516558  0.41353829    -0.19500
F573        F  0.14107107  0.06122326  0.42309742    -0.19800
F574        F  0.11933773  0.00852616  0.45103569    -0.22500
C575        C  0.23472504  0.15201610  0.22014737    -0.05300
C576        C  0.25231499  0.13049840  0.23226485     0.00600
C577        C  0.27235065  0.11380394  0.21670484    -0.07900
C578        C  0.26944640  0.11484981  0.18948181    -0.05300
C579        C  0.24827916  0.13284147  0.17741459     0.00600
C580        C  0.23210054  0.15322778  0.19289947    -0.07900
C581        C  0.20867119  0.17261318  0.18081569     0.62500
H582        H  0.22018786  0.16526912  0.23222299     0.13200
H583        H  0.28207944  0.09974888  0.17736164     0.13200
C584        C  0.29678493  0.09501497  0.22856184     0.62800
F585        F  0.19603549  0.19158567  0.19912374    -0.22400
F586        F  0.17349527  0.14173948  0.16866229    -0.19700
F587        F  0.23394252  0.20244758  0.16289348    -0.19400
F588        F  0.26963790  0.05618939  0.23882178    -0.19500
F589        F  0.32267012  0.12085708  0.24796465    -0.19800
F590        F  0.32171085  0.09023978  0.21025182    -0.22500
C591        C  0.08000611  0.11000645  0.30677922    -0.05300
C592        C  0.10371919  0.12256526  0.32962578     0.00600
C593        C  0.09064079  0.13766553  0.35098042    -0.07900
C594        C  0.05238812  0.13682204  0.34921921    -0.05300
C595        C  0.02763111  0.12199054  0.32694648     0.00600
C596        C  0.04169666  0.10911552  0.30508676    -0.07900
C597        C  0.01544027  0.09245649  0.28068419     0.62500
H598        H  0.09088937  0.09910803  0.29060029     0.13200
H599        H  0.04068919  0.14642894  0.36564138     0.13200
C600        C  0.11665076  0.15478169  0.37545391     0.62800
F601        F  0.03367520  0.07857552  0.26261684    -0.22400
F602        F  0.01092503  0.12366841  0.26927642    -0.19700
F603        F  0.97637157  0.05931740  0.28686694    -0.19400
F604        F  0.15755382  0.18339035  0.36891803    -0.19500
F605        F  0.11566584  0.12266370  0.38956889    -0.19800
F606        F  0.10170588  0.17480854  0.39129065    -0.22500
C607        C  0.06138305  0.72549776  0.36219008    -0.05300
C608        C  0.07250643  0.73803941  0.38831010     0.00600
C609        C  0.04069923  0.73479797  0.40532742    -0.07900
C610        C  0.00009759  0.72140491  0.39534083    -0.05300
C611        C  0.98964973  0.71111981  0.36885606     0.00600
C612        C  0.02099710  0.71269187  0.35212988    -0.07900
C613        C  0.01240096  0.70283693  0.32345501     0.62500
H614        H  0.08524548  0.72679107  0.34933780     0.13200
H615        H  0.97644731  0.72109226  0.40804029     0.13200
C616        C  0.04942218  0.74514834  0.43394142     0.62800
F617        F  0.04660080  0.70552158  0.31046813    -0.22400
F618        F  0.00263132  0.73062475  0.31207870    -0.19700
F619        F  0.97919353  0.66271321  0.32046123    -0.19400
F620        F  0.07849536  0.78698144  0.43687080    -0.19500
F621        F  0.06486689  0.72146268  0.44473492    -0.19800
F622        F  0.01366969  0.73703023  0.44754745    -0.22500
C623        C  0.26813222  0.92391686  0.12507810    -0.05300
C624        C  0.22698607  0.89348037  0.13307357     0.00600
C625        C  0.19417015  0.90182877  0.12789170    -0.07900
C626        C  0.20348727  0.93873310  0.11462367    -0.05300
C627        C  0.24463184  0.97022832  0.10799559     0.00600
C628        C  0.27759614  0.96228232  0.11305798    -0.07900
C629        C  0.32241458  0.99439809  0.10643777     0.62500
H630        H  0.29340121  0.91778569  0.12863332     0.13200
H631        H  0.17791890  0.94399396  0.11007359     0.13200
C632        C  0.14959875  0.87355736  0.13741062     0.62800
F633        F  0.35014105  0.98131883  0.11346344    -0.22400
F634        F  0.33357203  0.03129277  0.11938672    -0.19700
F635        F  0.32618990  0.00159022  0.07997671    -0.19400
F636        F  0.14975578  0.86687850  0.16380338    -0.19500
F637        F  0.13182879  0.83593059  0.12434969    -0.19800
F638        F  0.12439279  0.89084215  0.13342507    -0.22500
C639        C  0.20771164  0.78635084  0.27045172    -0.05300
C640        C  0.24672276  0.79907157  0.25889673     0.00600
C641        C  0.28252231  0.81331753  0.27465440    -0.07900
C642        C  0.27734115  0.81048957  0.30184216    -0.05300
C643        C  0.23748541  0.79356313  0.31332765     0.00600
C644        C  0.20250002  0.78384587  0.29754642    -0.07900
C645        C  0.15981423  0.77060189  0.30915998     0.62500
H646        H  0.18074599  0.77609207  0.25799277     0.13200
H647        H  0.30404077  0.81907495  0.31424418     0.13200
C648        C  0.32540972  0.82945873  0.26269086     0.62800
F649        F  0.13271260  0.77094643  0.29084072    -0.22400
F650        F  0.16356441  0.79771838  0.32891425    -0.19700
F651        F  0.14252342  0.73064680  0.31890133    -0.19400
F652        F  0.33370109  0.86153162  0.24571258    -0.19500
F653        F  0.32649127  0.79751333  0.24937848    -0.19800
F654        F  0.35657509  0.84466144  0.28127236    -0.22500
C655        C  0.17772813  0.77511442  0.02642139    -0.05300
C656        C  0.18553869  0.74700646  0.01237281     0.00600
C657        C  0.18514416  0.71330949  0.02573413    -0.07900
C658        C  0.18064427  0.71125686  0.05288648    -0.05300
C659        C  0.17658651  0.74140162  0.06711980     0.00600
C660        C  0.17389034  0.77327518  0.05375211    -0.07900
C661        C  0.16999063  0.80676429  0.06840452     0.62500
H662        H  0.17752718  0.80032019  0.01600031     0.13200
H663        H  0.18277870  0.68719926  0.06348795     0.13200
C664        C  0.19048388  0.67996626  0.01179079     0.62800
F665        F  0.16758595  0.83475543  0.05180367    -0.22400
F666        F  0.20447541  0.82873592  0.08417465    -0.19700
F667        F  0.13413884  0.78849255  0.08348325    -0.19400
F668        F  0.23183272  0.69597140  0.00449639    -0.19500
F669        F  0.16429027  0.66214854  0.49037014    -0.19800
F670        F  0.17943511  0.64576984  0.02753236    -0.22500
C671        C  0.17591350  0.58544814  0.18109749    -0.05300
C672        C  0.19944812  0.61149566  0.16045852     0.00600
C673        C  0.21182975  0.59489066  0.13955575    -0.07900
C674        C  0.20242741  0.55324108  0.14102016    -0.05300
C675        C  0.18165710  0.52832710  0.16254945     0.00600
C676        C  0.16648977  0.54375823  0.18241265    -0.07900
C677        C  0.13986993  0.51601166  0.20450876     0.62500
H678        H  0.16542175  0.59823626  0.19642535     0.13200
H679        H  0.21359052  0.54048993  0.12606371     0.13200
C680        C  0.23674531  0.62129368  0.11649074     0.62800
F681        F  0.12347582  0.53542055  0.21964894    -0.22400
F682        F  0.16349124  0.50581344  0.22032226    -0.19700
F683        F  0.10684674  0.47984691  0.19447755    -0.19400
F684        F  0.27180709  0.65712001  0.12507546    -0.19500
F685        F  0.21213456  0.63191468  0.10194021    -0.19800
F686        F  0.25009833  0.60023567  0.10033540    -0.22500
C687        C  0.01727169  0.21732089  0.12919288    -0.05300
C688        C  0.98804002  0.22936276  0.12186384     0.00600
C689        C  0.99652948  0.26982717  0.12864969    -0.07900
C690        C  0.03492035  0.29742507  0.14120212    -0.05300
C691        C  0.06562862  0.28629408  0.14724516     0.00600
C692        C  0.05554314  0.24462455  0.14180483    -0.07900
C693        C  0.08539418  0.22906232  0.14829685     0.62500
H694        H  0.01022073  0.18603458  0.12417461     0.13200
H695        H  0.04180869  0.32882416  0.14560499     0.13200
C696        C  0.96611598  0.28430807  0.12143730     0.62800
F697        F  0.06949951  0.18776781  0.14128568    -0.22400
F698        F  0.09246726  0.23213048  0.17475910    -0.19700
F699        F  0.12284757  0.25246355  0.13520895    -0.19400
F700        F  0.92780429  0.25890397  0.13313902    -0.19500
F701        F  0.96103113  0.28232174  0.09478654    -0.19800
F702        F  0.98003328  0.32492879  0.12933319    -0.22500
C703        C  0.26526890  0.30509422  0.37012482    -0.05300
C704        C  0.24216582  0.29482641  0.39364221     0.00600
C705        C  0.23390801  0.25722868  0.40612765    -0.07900
C706        C  0.24713027  0.23089840  0.39406480    -0.05300
C707        C  0.26832190  0.24054717  0.36992995     0.00600
C708        C  0.27827155  0.27893364  0.35814092    -0.07900
C709        C  0.30288164  0.29243885  0.33284673     0.62500
H710        H  0.27224691  0.33376263  0.36047599     0.13200
H711        H  0.23876522  0.20114988  0.40275104     0.13200
C712        C  0.21138841  0.24485111  0.43204899     0.62800
F713        F  0.31524499  0.33337416  0.32673876    -0.22400
F714        F  0.27876733  0.26749827  0.31263014    -0.19700
F715        F  0.33848520  0.28921341  0.33498832    -0.19400
F716        F  0.17079904  0.23677058  0.42918710    -0.19500
F717        F  0.23206015  0.27682881  0.44979252    -0.19800
F718        F  0.20978344  0.20941175  0.44196716    -0.22500
C719        C  0.18614886  0.36742584  0.02945439    -0.05300
C720        C  0.22195510  0.39682119  0.01604201     0.00600
C721        C  0.25903429  0.42326842  0.02986774    -0.07900
C722        C  0.25818095  0.42099860  0.05709627    -0.05300
C723        C  0.22124141  0.39435291  0.07061994     0.00600
C724        C  0.18484641  0.36606578  0.05672029    -0.07900
C725        C  0.14469658  0.33495291  0.07047145     0.62500
H726        H  0.15824161  0.34734733  0.01842227     0.13200
H727        H  0.28569681  0.44214034  0.06810764     0.13200
C728        C  0.29906136  0.45421625  0.01601704     0.62800
F729        F  0.11602138  0.30588872  0.05337073    -0.22400
F730        F  0.12626060  0.35546387  0.08216088    -0.19700
F731        F  0.15338282  0.31366379  0.08912505    -0.19400
F732        F  0.29457420  0.48607120  0.00561114    -0.19500
F733        F  0.30796578  0.43428681  0.99632017    -0.19800
F734        F  0.33285355  0.47181929  0.03273351    -0.22500
C735        C  0.20684346  0.37819435  0.30839205    -0.05300
C736        C  0.18506066  0.39547649  0.32084058     0.00600
C737        C  0.16298473  0.41013270  0.30574593    -0.07900
C738        C  0.16568793  0.40902960  0.27850393    -0.05300
C739        C  0.18871950  0.39307942  0.26627746     0.00600
C740        C  0.20909622  0.37671941  0.28126147    -0.07900
C741        C  0.23478838  0.35967289  0.26862468     0.62500
H742        H  0.22314365  0.36676932  0.32020530     0.13200
H743        H  0.15053304  0.42140520  0.26643986     0.13200
C744        C  0.13803743  0.42822682  0.31810335     0.62800
F745        F  0.25327581  0.34668205  0.28681962    -0.22400
F746        F  0.26620420  0.39026294  0.25357212    -0.19700
F747        F  0.20933901  0.32585834  0.25312324    -0.19400
F748        F  0.16335081  0.46079642  0.33450632    -0.19500
F749        F  0.10480441  0.39756908  0.33203617    -0.19800
F750        F  0.12189936  0.44341058  0.29971280    -0.22500
C751        C  0.18186423  0.59616637  0.43670146    -0.05300
C752        C  0.17934399  0.61046279  0.41190713     0.00600
C753        C  0.17234537  0.58421680  0.39015960    -0.07900
C754        C  0.17234881  0.54654229  0.39390614    -0.05300
C755        C  0.17899101  0.53415120  0.41846442     0.00600
C756        C  0.18201097  0.55876273  0.44056525    -0.07900
C757        C  0.18634197  0.54697818  0.46820346     0.62500
H758        H  0.18548329  0.61574532  0.45329359     0.13200
H759        H  0.16852350  0.52706098  0.37723838     0.13200
C760        C  0.16619574  0.59609316  0.36304026     0.62800
F761        F  0.18484570  0.57379966  0.48645214    -0.22400
F762        F  0.22437024  0.54859307  0.47100293    -0.19700
F763        F  0.15393940  0.50731967  0.47379508    -0.19400
F764        F  0.20111582  0.63299202  0.35559169    -0.19500
F765        F  0.13133034  0.60080990  0.36276979    -0.19800
F766        F  0.16002586  0.56592308  0.34483332    -0.22500
C767        C  0.42390226  0.77844914  0.39162808    -0.05300
C768        C  0.44458286  0.78696289  0.41550090     0.00600
C769        C  0.42601159  0.79302192  0.43798540    -0.07900
C770        C  0.38621458  0.78870083  0.43585401    -0.05300
C771        C  0.36455857  0.77853013  0.41218493     0.00600
C772        C  0.38375183  0.77347656  0.38949303    -0.07900
C773        C  0.36163358  0.76078497  0.36341597     0.62500
H774        H  0.43869468  0.77354133  0.37481423     0.13200
H775        H  0.37154472  0.79305086  0.45292755     0.13200
C776        C  0.44803558  0.80435757  0.46410353     0.62800
F777        F  0.38386360  0.75175704  0.34530150    -0.22400
F778        F  0.35700980  0.79289965  0.35357411    -0.19700
F779        F  0.32276340  0.72543515  0.36633309    -0.19400
F780        F  0.48889070  0.83634993  0.46103540    -0.19500
F781        F  0.44787637  0.77006076  0.47467518    -0.19800
F782        F  0.42853278  0.81761478  0.48163996    -0.22500
C783        C  0.67650876  0.93124282  0.38954983    -0.05300
C784        C  0.68649487  0.89906309  0.39239780     0.00600
C785        C  0.72639066  0.90730198  0.38356508    -0.07900
C786        C  0.75350533  0.94606587  0.37155380    -0.05300
C787        C  0.74268593  0.97728599  0.36754288     0.00600
C788        C  0.70372161  0.96999438  0.37729428    -0.07900
C789        C  0.69013283  0.00203569  0.37365839     0.62500
H790        H  0.64625618  0.92532754  0.39641576     0.13200
H791        H  0.78373448  0.95205318  0.36457248     0.13200
C792        C  0.73991234  0.87487508  0.38567574     0.62800
F793        F  0.65010083  0.98810555  0.38309254    -0.22400
F794        F  0.69061461  0.01065692  0.34752024    -0.19700
F795        F  0.71715211  0.03829083  0.38673200    -0.19400
F796        F  0.71174008  0.83882827  0.37280939    -0.19500
F797        F  0.74176666  0.86606369  0.41152480    -0.19800
F798        F  0.77900261  0.88849783  0.37481646    -0.22500
C799        C  0.42600783  0.57732240  0.41611370    -0.05300
C800        C  0.42491824  0.61412262  0.42052890     0.00600
C801        C  0.38639130  0.61286249  0.42401381    -0.07900
C802        C  0.34951569  0.57419866  0.42224652    -0.05300
C803        C  0.35026096  0.53707777  0.41774196     0.00600
C804        C  0.38907601  0.53832935  0.41515949    -0.07900
C805        C  0.39169277  0.49888372  0.41258868     0.62500
H806        H  0.45619141  0.57944447  0.41369571     0.13200
H807        H  0.31956819  0.57263264  0.42450593     0.13200
C808        C  0.38438331  0.65221225  0.42935096     0.62800
F809        F  0.43260875  0.50726557  0.41358512    -0.22400
F810        F  0.37504824  0.47965515  0.38911540    -0.19700
F811        F  0.36977573  0.47191231  0.43268745    -0.19400
F812        F  0.40440360  0.68073454  0.40964762    -0.19500
F813        F  0.40378083  0.66955312  0.45267889    -0.19800
F814        F  0.34356742  0.64423030  0.43091762    -0.22500
C815        C  0.39835120  0.62342905  0.17200867    -0.05300
C816        C  0.43402276  0.62347784  0.16206495     0.00600
C817        C  0.43039297  0.58534250  0.15350798    -0.07900
C818        C  0.39112342  0.54856016  0.15557045    -0.05300
C819        C  0.35591543  0.54880048  0.16592935     0.00600
C820        C  0.35924261  0.58694280  0.17381782    -0.07900
C821        C  0.32149331  0.58954642  0.18326361     0.62500
H822        H  0.40126231  0.65259867  0.17848378     0.13200
H823        H  0.38763991  0.51900885  0.14936698     0.13200
C824        C  0.46769484  0.58300136  0.14304858     0.62800
F825        F  0.33065185  0.63040840  0.18641656    -0.22400
F826        F  0.30797637  0.56972295  0.20693869    -0.19700
F827        F  0.28948991  0.57079236  0.16538688    -0.19400
F828        F  0.50005346  0.60034708  0.16077835    -0.19500
F829        F  0.48083869  0.60435883  0.11981579    -0.19800
F830        F  0.45802944  0.54226631  0.13852656    -0.22500
C831        C  0.66810625  0.71130592  0.11611842    -0.05300
C832        C  0.67535991  0.72852975  0.14137133     0.00600
C833        C  0.70795301  0.72856925  0.15596925    -0.07900
C834        C  0.73355896  0.71421621  0.14412628    -0.05300
C835        C  0.72726005  0.69901918  0.11836052     0.00600
C836        C  0.69263192  0.69601098  0.10464754    -0.07900
C837        C  0.68217733  0.67832302  0.07729062     0.62500
H838        H  0.64306681  0.71053398  0.10482088     0.13200
H839        H  0.76034536  0.71712718  0.15446874     0.13200
C840        C  0.71545250  0.74327534  0.18391319     0.62800
F841        F  0.64029682  0.66301483  0.07183343    -0.22400
F842        F  0.69012646  0.64576101  0.07440128    -0.19700
F843        F  0.70586825  0.70921031  0.05951066    -0.19400
F844        F  0.67887891  0.72108198  0.19807905    -0.19500
F845        F  0.72826865  0.78527302  0.18499188    -0.19800
F846        F  0.74598194  0.73747356  0.19536260    -0.22500
C847        C  0.53052012  0.72979849  0.27576782    -0.05300
C848        C  0.56962706  0.74789199  0.26301011     0.00600
C849        C  0.60639895  0.76035320  0.27804180    -0.07900
C850        C  0.60248199  0.75694421  0.30528729    -0.05300
C851        C  0.56365309  0.74145361  0.31758560     0.00600
C852        C  0.52693258  0.72658492  0.30281936    -0.07900
C853        C  0.48416043  0.70772412  0.31574738     0.62500
H854        H  0.50236995  0.71896525  0.26441962     0.13200
H855        H  0.62989079  0.76753585  0.31736809     0.13200
C856        C  0.64963441  0.77786786  0.26595985     0.62800
F857        F  0.45217136  0.69368094  0.29777105    -0.22400
F858        F  0.48209393  0.73720617  0.33128109    -0.19700
F859        F  0.47754719  0.67421722  0.33089147    -0.19400
F860        F  0.66022567  0.81420696  0.25267221    -0.19500
F861        F  0.65003035  0.74880989  0.24916585    -0.19800
F862        F  0.68015045  0.78721791  0.28447287    -0.22500
C863        C  0.61427248  0.78653426  0.05594784    -0.05300
C864        C  0.58769325  0.79856481  0.06782784     0.00600
C865        C  0.56595834  0.81308850  0.05244540    -0.07900
C866        C  0.56782753  0.81034085  0.02531543    -0.05300
C867        C  0.59204050  0.79539893  0.01342755     0.00600
C868        C  0.61774063  0.78572489  0.02879457    -0.07900
C869        C  0.64728195  0.77296187  0.01669561     0.62500
H870        H  0.63134846  0.77653512  0.06819916     0.13200
H871        H  0.54916774  0.81843134  0.01310602     0.13200
C872        C  0.53923051  0.82925958  0.06455276     0.62800
F873        F  0.66824191  0.76365968  0.03531043    -0.22400
F874        F  0.67689962  0.80537837  0.00176844    -0.19700
F875        F  0.62517312  0.73805807  0.00124843    -0.19400
F876        F  0.56397795  0.86412407  0.07947524    -0.19500
F877        F  0.50873443  0.79881286  0.08003517    -0.19800
F878        F  0.51962381  0.84035290  0.04599346    -0.22500
C879        C  0.43464296  0.81857280  0.17091488    -0.05300
C880        C  0.43864805  0.78878069  0.15639462     0.00600
C881        C  0.40674795  0.76216011  0.13917741    -0.07900
C882        C  0.37096073  0.76585477  0.13750180    -0.05300
C883        C  0.36533584  0.79419089  0.15302551     0.00600
C884        C  0.39855953  0.82214489  0.16953493    -0.07900
C885        C  0.39636734  0.85499038  0.18613299     0.62500
H886        H  0.46004648  0.83867832  0.18373747     0.13200
H887        H  0.34631701  0.74518591  0.12447297     0.13200
C888        C  0.40938307  0.72849512  0.12366419     0.62800
F889        F  0.36527155  0.83582262  0.20459760    -0.22400
F890        F  0.38826019  0.88052773  0.17067918    -0.19700
F891        F  0.43347979  0.88010279  0.19907152    -0.19400
F892        F  0.41644693  0.70343983  0.14018239    -0.19500
F893        F  0.44168106  0.74654196  0.10590565    -0.19800
F894        F  0.37293417  0.70325546  0.11012355    -0.22500
C895        C  0.93186086  0.60818584  0.01964661    -0.05300
C896        C  0.93485130  0.57821815  0.03465776     0.00600
C897        C  0.92440420  0.57585666  0.06157668    -0.07900
C898        C  0.91090974  0.60299731  0.07211954    -0.05300
C899        C  0.90718671  0.63233187  0.05672246     0.00600
C900        C  0.91814991  0.63481461  0.02989058    -0.07900
C901        C  0.91381512  0.66440595  0.01146136     0.62500
H902        H  0.93917990  0.60963664  0.99914530     0.13200
H903        H  0.90324766  0.60155050  0.09255278     0.13200
C904        C  0.92613549  0.54384957  0.07892906     0.62800
F905        F  0.91652014  0.65511934  0.98569784    -0.22400
F906        F  0.94527461  0.70491877  0.01597207    -0.19700
F907        F  0.87534327  0.66154402  0.01502825    -0.19400
F908        F  0.96637252  0.55022058  0.07901607    -0.19500
F909        F  0.87840150  0.52385660  0.59642498    -0.19800
F910        F  0.91505631  0.54648510  0.10430202    -0.22500
C911        C  0.00120373  0.36767764  0.45727851    -0.05300
C912        C  0.01376091  0.39783632  0.47742600     0.00600
C913        C  0.05366887  0.41146468  0.48872979    -0.07900
C914        C  0.07983416  0.39670440  0.47833626    -0.05300
C915        C  0.06756245  0.36824851  0.45737670     0.00600
C916        C  0.02684144  0.35253930  0.44737207    -0.07900
C917        C  0.00889912  0.31998585  0.42596583     0.62500
H918        H  0.97072297  0.35578468  0.44848707     0.13200
H919        H  0.11143255  0.40943584  0.48551910     0.13200
C920        C  0.06647518  0.44179374  0.01193340     0.62800
F921        F  0.97158965  0.28648602  0.43443676    -0.22400
F922        F  0.03512401  0.30499441  0.41884790    -0.19700
F923        F  0.00117176  0.33701197  0.40433223    -0.19400
F924        F  0.03555127  0.42339337  0.03068192    -0.19500
F925        F  0.07333848  0.48125606  0.00654702    -0.19800
F926        F  0.10302981  0.44590793  0.02201390    -0.22500
C927        C  0.95121010  0.30553720  0.29231164    -0.05300
C928        C  0.91712960  0.31013243  0.28520979     0.00600
C929        C  0.87652688  0.27878458  0.29389182    -0.07900
C930        C  0.87083364  0.24221679  0.30608726    -0.05300
C931        C  0.90418417  0.23561899  0.31100731     0.00600
C932        C  0.94563680  0.26923415  0.30538144    -0.07900
C933        C  0.98435000  0.26748924  0.31313426     0.62500
H934        H  0.98224522  0.32984108  0.28668851     0.13200
H935        H  0.83952008  0.21732057  0.31063802     0.13200
C936        C  0.83820465  0.28253956  0.28946520     0.62800
F937        F  0.01966291  0.30676613  0.31306053    -0.22400
F938        F  0.99105347  0.24267436  0.29588859    -0.19700
F939        F  0.97953768  0.25163999  0.33798606    -0.19400
F940        F  0.82620940  0.27250481  0.26393979    -0.19500
F941        F  0.84694790  0.32265585  0.29501528    -0.19800
F942        F  0.80505709  0.25569423  0.30516550    -0.22500
C943        C  0.00878861  0.58222669  0.20088697    -0.05300
C944        C  0.01623932  0.56525367  0.22353396     0.00600
C945        C  0.05404462  0.59055346  0.23703313    -0.07900
C946        C  0.08278358  0.63059506  0.22704652    -0.05300
C947        C  0.07662187  0.64630826  0.20335727     0.00600
C948        C  0.03835642  0.62145279  0.19025256    -0.07900
C949        C  0.02922764  0.63525636  0.16463705     0.62500
H950        H  0.97947930  0.56385706  0.19093972     0.13200
H951        H  0.11173091  0.64951836  0.23738764     0.13200
C952        C  0.06423167  0.57576400  0.26192240     0.62800
F953        F  0.99043255  0.60637543  0.15491631    -0.22400
F954        F  0.05911340  0.64037387  0.14641328    -0.19700
F955        F  0.02973956  0.67255605  0.16806556    -0.19400
F956        F  0.06878905  0.54159488  0.25675623    -0.19500
F957        F  0.03238709  0.56490654  0.27984771    -0.19800
F958        F  0.10107390  0.60629157  0.27298220    -0.22500
C959        C  0.88537874  0.46103168  0.35583367    -0.05300
C960        C  0.90823987  0.44490940  0.34353344     0.00600
C961        C  0.93239596  0.43281361  0.35854862    -0.07900
C962        C  0.93196055  0.43646235  0.38570061    -0.05300
C963        C  0.90839783  0.45175324  0.39814031     0.00600
C964        C  0.88519077  0.46500587  0.38302561    -0.07900
C965        C  0.85892027  0.48153222  0.39545447     0.62500
H966        H  0.86710137  0.46991513  0.34387294     0.13200
H967        H  0.94929832  0.42634689  0.39759650     0.13200
C968        C  0.95665105  0.41399594  0.34611315     0.62800
F969        F  0.83639765  0.48945364  0.37721715    -0.22400
F970        F  0.88464296  0.51844466  0.40834242    -0.19700
F971        F  0.83074625  0.45263771  0.41284875    -0.19400
F972        F  0.98765765  0.44296277  0.33008679    -0.19500
F973        F  0.92981077  0.37923593  0.33170980    -0.19800
F974        F  0.97559447  0.40176087  0.36445287    -0.22500
C975        C  0.89058030  0.37668141  0.13400508    -0.05300
C976        C  0.91511032  0.41292027  0.14856839     0.00600
C977        C  0.94399445  0.45031120  0.13583070    -0.07900
C978        C  0.94437352  0.45116229  0.10865672    -0.05300
C979        C  0.91619269  0.41638806  0.09417872     0.00600
C980        C  0.89019772  0.37789101  0.10673180    -0.07900
C981        C  0.86204369  0.33857634  0.09145504     0.62500
H982        H  0.86933469  0.34820561  0.14416212     0.13200
H983        H  0.96423855  0.48019680  0.09860227     0.13200
C984        C  0.97176923  0.49027087  0.15057854     0.62800
F985        F  0.84384290  0.30369503  0.10724363    -0.22400
F986        F  0.88527541  0.33247342  0.07257717    -0.19700
F987        F  0.83032876  0.34202350  0.07976695    -0.19400
F988        F  0.98887980  0.48223163  0.17207173    -0.19500
F989        F  0.94816682  0.50785552  0.15839147    -0.19800
F990        F  0.00443252  0.51891382  0.13525900    -0.22500
C991        C  0.68255560  0.61095430  0.27561083    -0.05300
C992        C  0.65466860  0.57318959  0.28788375     0.00600
C993        C  0.66789501  0.56335851  0.31144486    -0.07900
C994        C  0.70892631  0.59051149  0.32107853    -0.05300
C995        C  0.73708641  0.62775513  0.30835336     0.00600
C996        C  0.72271584  0.63895387  0.28582220    -0.07900
C997        C  0.74984784  0.68054674  0.27244169     0.62500
H998        H  0.67275295  0.61805105  0.25750208     0.13200
H999        H  0.71929261  0.58288560  0.33876558     0.13200
C1000       C  0.63916995  0.52334057  0.32585377     0.62800
F1001       F  0.73153169  0.68425143  0.24999783    -0.22400
F1002       F  0.78808569  0.68481054  0.26583861    -0.19700
F1003       F  0.75618227  0.71273915  0.28892274    -0.19400
F1004       F  0.65766968  0.51898124  0.34799843    -0.19500
F1005       F  0.62890244  0.48944458  0.30997738    -0.19800
F1006       F  0.60301850  0.52324149  0.33315681    -0.22500
C1007       C  0.37374829  0.36445640  0.21876497    -0.05300
C1008       C  0.40149431  0.40518582  0.22850803     0.00600
C1009       C  0.38763486  0.43476592  0.22750379    -0.07900
C1010       C  0.34865269  0.42329779  0.21572302    -0.05300
C1011       C  0.32233645  0.38347565  0.20493491     0.00600
C1012       C  0.33471394  0.35323818  0.20700317    -0.07900
C1013       C  0.30746468  0.30994062  0.19585932     0.62500
H1014       H  0.38331872  0.34126396  0.21975655     0.13200
H1015       H  0.33873090  0.44619601  0.21406022     0.13200
C1016       C  0.41412042  0.47882301  0.23784033     0.62800
F1017       F  0.32532408  0.28509876  0.19886393    -0.22400
F1018       F  0.30143135  0.31266313  0.16962320    -0.19700
F1019       F  0.26908581  0.29087073  0.20835956    -0.19400
F1020       F  0.45194640  0.49870998  0.22472169    -0.19500
F1021       F  0.42102934  0.47758045  0.26409197    -0.19800
F1022       F  0.39483302  0.50235892  0.23469816    -0.22500
C1023       C  0.71395147  0.44941969  0.22326845    -0.05300
C1024       C  0.70147696  0.45814312  0.24722748     0.00600
C1025       C  0.72994157  0.47226441  0.26828265    -0.07900
C1026       C  0.76806693  0.47285464  0.26530963    -0.05300
C1027       C  0.77915126  0.46117061  0.24194364     0.00600
C1028       C  0.75255560  0.45092416  0.22014061    -0.07900
C1029       C  0.76385158  0.43985443  0.19404868     0.62500
H1030       H  0.69243418  0.43990871  0.20711766     0.13200
H1031       H  0.78914833  0.48119033  0.28164493     0.13200
C1032       C  0.72103286  0.48782142  0.29350456     0.62800
F1033       F  0.73293181  0.42989541  0.17574069    -0.22400
F1034       F  0.76951818  0.40586395  0.19667288    -0.19700
F1035       F  0.80030701  0.47351274  0.18477581    -0.19400
F1036       F  0.68956932  0.45495894  0.30718456    -0.19500
F1037       F  0.70918744  0.51692886  0.28806520    -0.19800
F1038       F  0.75595349  0.50685760  0.30927839    -0.22500
C1039       C  0.42044961  0.27325291  0.02766993    -0.05300
C1040       C  0.41453319  0.30813125  0.02752999     0.00600
C1041       C  0.37748269  0.30331730  0.03897915    -0.07900
C1042       C  0.34787245  0.26398638  0.04978822    -0.05300
C1043       C  0.35438301  0.22920083  0.05068896     0.00600
C1044       C  0.39225799  0.23471503  0.03954125    -0.07900
C1045       C  0.40459357  0.20128226  0.04088338     0.62500
H1046       H  0.44899598  0.27711863  0.01904132     0.13200
H1047       H  0.31941663  0.26062068  0.05816053     0.13200
C1048       C  0.39354019  0.27747183  0.48748187     0.62800
F1049       F  0.44373211  0.21445665  0.03022990    -0.22400
F1050       F  0.37645276  0.16638739  0.02728843    -0.19700
F1051       F  0.40559452  0.19082846  0.06649679    -0.19400
F1052       F  0.43529522  0.28957385  0.48404779    -0.19500
F1053       F  0.38549092  0.30611246  0.47563069    -0.19800
F1054       F  0.36974476  0.23929759  0.47533772    -0.22500
C1055       C  0.73182723  0.49058597  0.48721242    -0.05300
C1056       C  0.69518629  0.45535796  0.49584276     0.00600
C1057       C  0.73609608  0.49074342  0.97552064    -0.07900
C1058       C  0.77105573  0.48590776  0.97894938    -0.05300
C1059       C  0.77880267  0.47200864  0.00263655     0.00600
C1060       C  0.77071168  0.49213690  0.48819701    -0.07900
C1061       C  0.80984170  0.53055189  0.47842256     0.62500
H1062       H  0.72947386  0.51614337  0.47891883     0.13200
H1063       H  0.79165152  0.49143410  0.96254256     0.13200
C1064       C  0.72892901  0.50563417  0.94969215     0.62800
F1065       F  0.80224627  0.56263632  0.47264248    -0.22400
F1066       F  0.82426800  0.52091537  0.45610520    -0.19700
F1067       F  0.84058065  0.54480172  0.49721512    -0.19400
F1068       F  0.71916767  0.53673810  0.95382026    -0.19500
F1069       F  0.69641463  0.47283311  0.93667253    -0.19800
F1070       F  0.76422159  0.52178112  0.93402576    -0.22500
C1071       C  0.60554682  0.59285128  0.46533492    -0.05300
C1072       C  0.56380112  0.56377330  0.47293025     0.00600
C1073       C  0.53275011  0.57511027  0.46875877    -0.07900
C1074       C  0.54439303  0.61366646  0.45665589    -0.05300
C1075       C  0.58570898  0.64194157  0.44853861     0.00600
C1076       C  0.61696091  0.63151470  0.45323528    -0.07900
C1077       C  0.66167226  0.66036433  0.44458786     0.62500
H1078       H  0.62960256  0.58471215  0.46838934     0.13200
H1079       H  0.52059159  0.62203323  0.45302346     0.13200
C1080       C  0.48963564  0.55439545  0.98042231     0.62800
F1081       F  0.68723572  0.64387796  0.44974496    -0.22400
F1082       F  0.67757587  0.69805187  0.45749964    -0.19700
F1083       F  0.66274619  0.66713693  0.41813723    -0.19400
F1084       F  0.48990687  0.54513866  0.00639338    -0.19500
F1085       F  0.46978471  0.51787096  0.96618669    -0.19800
F1086       F  0.46656397  0.57434677  0.97813004    -0.22500
C1087       C  0.60010705  0.48510388  0.13936979    -0.05300
C1088       C  0.56115966  0.45780945  0.15099547     0.00600
C1089       C  0.52569780  0.43450685  0.13488525    -0.07900
C1090       C  0.53153722  0.43650072  0.10789279    -0.05300
C1091       C  0.57088169  0.46137542  0.09648076     0.00600
C1092       C  0.60564029  0.48723041  0.11220237    -0.07900
C1093       C  0.64859460  0.51501719  0.10042599     0.62500
H1094       H  0.62681671  0.50323695  0.15176779     0.13200
H1095       H  0.50532768  0.41736331  0.09531864     0.13200
C1096       C  0.48170435  0.40748015  0.14567594     0.62800
F1097       F  0.67828495  0.53724084  0.11920638    -0.22400
F1098       F  0.64709847  0.54333287  0.08372770    -0.19700
F1099       F  0.66126799  0.49094205  0.08680365    -0.19400
F1100       F  0.47328895  0.42941881  0.16426105    -0.19500
F1101       F  0.47776790  0.37160547  0.15650134    -0.19800
F1102       F  0.45171329  0.39553339  0.12648211    -0.22500
C1103       C  0.51537813  0.37926876  0.38895550    -0.05300
C1104       C  0.51331092  0.41085712  0.40278266     0.00600
C1105       C  0.51098838  0.44266925  0.38916815    -0.07900
C1106       C  0.51314666  0.44292397  0.36181659    -0.05300
C1107       C  0.51853529  0.41301843  0.34798964     0.00600
C1108       C  0.51783926  0.37952865  0.36173440    -0.07900
C1109       C  0.52029011  0.34434789  0.34806945     0.62500
H1110       H  0.51708378  0.35521141  0.39984782     0.13200
H1111       H  0.51325062  0.46806541  0.35112216     0.13200
C1112       C  0.50885168  0.47740551  0.40355464     0.62800
F1113       F  0.50958190  0.31103422  0.36454951    -0.22400
F1114       F  0.56061822  0.35834711  0.33928571    -0.19700
F1115       F  0.49293734  0.32986294  0.32733628    -0.19400
F1116       F  0.54374495  0.49881006  0.41910106    -0.19500
F1117       F  0.47329629  0.46063317  0.41890436    -0.19800
F1118       F  0.50737989  0.50564581  0.38671634    -0.22500
C1119       C  0.33342674  0.02635677  0.30280792    -0.05300
C1120       C  0.34816977  0.06729314  0.31270746     0.00600
C1121       C  0.39205823  0.09542734  0.31182043    -0.07900
C1122       C  0.41843607  0.08245288  0.29983508    -0.05300
C1123       C  0.40304313  0.04273006  0.28839829     0.00600
C1124       C  0.35988790  0.01393701  0.29036337    -0.07900
C1125       C  0.34182610  0.97108293  0.27816423     0.62500
H1126       H  0.30023030  0.00424021  0.30377061     0.13200
H1127       H  0.45163868  0.10433146  0.29803136     0.13200
C1128       C  0.41113947  0.13959754  0.32221916     0.62800
F1129       F  0.29912067  0.94706726  0.28230621    -0.22400
F1130       F  0.36076651  0.95046053  0.28872051    -0.19700
F1131       F  0.34904325  0.97500784  0.25166828    -0.19400
F1132       F  0.40245791  0.13859212  0.34845068    -0.19500
F1133       F  0.39487476  0.16075428  0.30910462    -0.19800
F1134       F  0.45419338  0.16170843  0.31914525    -0.22500
C1135       C  0.70305039  0.21395467  0.22085842    -0.05300
C1136       C  0.68248492  0.19921467  0.24473421     0.00600
C1137       C  0.70048528  0.22280733  0.26761548    -0.07900
C1138       C  0.73592849  0.26230456  0.26526619    -0.05300
C1139       C  0.75593314  0.27822180  0.24131417     0.00600
C1140       C  0.74019377  0.25273150  0.21867836    -0.07900
C1141       C  0.76176788  0.26555628  0.19232316     0.62500
H1142       H  0.68923423  0.19504356  0.20372526     0.13200
H1143       H  0.74857561  0.28090741  0.28263982     0.13200
C1144       C  0.68325628  0.20674104  0.29468981     0.62800
F1145       F  0.73953815  0.23652434  0.17318574    -0.22400
F1146       F  0.80083457  0.26908598  0.19365752    -0.19700
F1147       F  0.76575965  0.30317185  0.18479892    -0.19400
F1148       F  0.67285970  0.16544542  0.29702350    -0.19500
F1149       F  0.64833323  0.21045340  0.29936213    -0.19800
F1150       F  0.71235882  0.22902155  0.31375315    -0.22500
C1151       C  0.60850651  0.97327096  0.20962277    -0.05300
C1152       C  0.57388915  0.95950795  0.22693737     0.00600
C1153       C  0.55455414  0.91717044  0.23528034    -0.07900
C1154       C  0.56797765  0.89025882  0.22441719    -0.05300
C1155       C  0.60058617  0.90381729  0.20593257     0.00600
C1156       C  0.62185908  0.94636743  0.19903727    -0.07900
C1157       C  0.65809076  0.96285739  0.17994563     0.62500
H1158       H  0.62463001  0.00545978  0.20341764     0.13200
H1159       H  0.55137128  0.85741805  0.22928647     0.13200
C1160       C  0.51970005  0.89993180  0.25534012     0.62800
F1161       F  0.67775807  0.00576593  0.17743562    -0.22400
F1162       F  0.64377753  0.94516854  0.15577634    -0.19700
F1163       F  0.68736424  0.95271619  0.18843337    -0.19400
F1164       F  0.48497241  0.89998771  0.24554065    -0.19500
F1165       F  0.53305356  0.92409866  0.27759841    -0.19800
F1166       F  0.50782659  0.85938340  0.26218797    -0.22500
C1167       C  0.55983642  0.24269009  0.24799352    -0.05300
C1168       C  0.52152701  0.20724423  0.24227605     0.00600
C1169       C  0.48677928  0.21154605  0.23543214    -0.07900
C1170       C  0.49116827  0.25168138  0.23614132    -0.05300
C1171       C  0.52924265  0.28710678  0.24302667     0.00600
C1172       C  0.56480282  0.28276416  0.24787329    -0.07900
C1173       C  0.60831591  0.32000449  0.25237155     0.62500
H1174       H  0.58615079  0.23862737  0.25269569     0.13200
H1175       H  0.46465527  0.25557462  0.23184929     0.13200
C1176       C  0.44521244  0.17390261  0.22811089     0.62800
F1177       F  0.63902004  0.30907768  0.25025084    -0.22400
F1178       F  0.61072522  0.33603020  0.27700878    -0.19700
F1179       F  0.61708298  0.35056669  0.23407259    -0.19400
F1180       F  0.43141315  0.14481276  0.24788242    -0.19500
F1181       F  0.44996713  0.15612594  0.20561870    -0.19800
F1182       F  0.41476097  0.18453413  0.22375016    -0.22500
C1183       C  0.69149790  0.09731790  0.03883046    -0.05300
C1184       C  0.66071457  0.05591213  0.03253951     0.00600
C1185       C  0.66754496  0.02329814  0.04037258    -0.07900
C1186       C  0.70568209  0.03348898  0.05297224    -0.05300
C1187       C  0.73743372  0.07517812  0.05811844     0.00600
C1188       C  0.72958276  0.10762258  0.05124252    -0.07900
C1189       C  0.76192606  0.15313936  0.05576702     0.62500
H1190       H  0.68579548  0.12218558  0.03331759     0.13200
H1191       H  0.71154195  0.00863761  0.05827296     0.13200
C1192       C  0.63569475  0.97826680  0.03438550     0.62800
F1193       F  0.70965012  0.14787748  0.58714223    -0.22400
F1194       F  0.79904800  0.16260178  0.04345821    -0.19700
F1195       F  0.76880050  0.16061468  0.08210596    -0.19400
F1196       F  0.62816387  0.97340508  0.00796737    -0.19500
F1197       F  0.59873678  0.96718261  0.04740532    -0.19800
F1198       F  0.64938555  0.95131023  0.04194508    -0.22500
C1199       C  0.53059761  0.21901223  0.47091223    -0.05300
C1200       C  0.51785028  0.19525347  0.49366026     0.00600
C1201       C  0.53487870  0.22975916  0.02119911    -0.07900
C1202       C  0.54470711  0.27135168  0.01914904    -0.05300
C1203       C  0.55074415  0.29131590  0.99502651     0.00600
C1204       C  0.53709409  0.25981149  0.47021872    -0.07900
C1205       C  0.55245983  0.28437539  0.44504543     0.62500
H1206       H  0.53795751  0.20618904  0.45408048     0.13200
H1207       H  0.54777761  0.28854311  0.03683507     0.13200
C1208       C  0.52709034  0.21015439  0.04801568     0.62800
F1209       F  0.55948459  0.26227988  0.42583129    -0.22400
F1210       F  0.58974722  0.32099082  0.44921797    -0.19700
F1211       F  0.52275639  0.29336809  0.43582864    -0.19400
F1212       F  0.56309607  0.21171579  0.05691111    -0.19500
F1213       F  0.49492681  0.16912513  0.04720811    -0.19800
F1214       F  0.51566386  0.23103311  0.06567211    -0.22500
C1215       C  0.36369477  0.89259460  0.44886411    -0.05300
C1216       C  0.32834779  0.89808041  0.45023304     0.00600
C1217       C  0.33222586  0.93225806  0.46498312    -0.07900
C1218       C  0.37145342  0.96026424  0.47664813    -0.05300
C1219       C  0.40689571  0.95511042  0.47448689     0.00600
C1220       C  0.40268666  0.92050940  0.46021697    -0.07900
C1221       C  0.43990566  0.91425460  0.45568230     0.62500
H1222       H  0.36084410  0.86598732  0.43827045     0.13200
H1223       H  0.37504911  0.98720474  0.48720916     0.13200
C1224       C  0.29577283  0.93993241  0.46769703     0.62800
F1225       F  0.43034627  0.88120783  0.43912581    -0.22400
F1226       F  0.45275925  0.90631317  0.47904424    -0.19700
F1227       F  0.47255966  0.94962620  0.44458791    -0.19400
F1228       F  0.26349021  0.90721439  0.48100399    -0.19500
F1229       F  0.28199808  0.94312330  0.44336765    -0.19800
F1230       F  0.30671863  0.97635958  0.48121256    -0.22500
C1231       C  0.54029301  0.04426846  0.13695615    -0.05300
C1232       C  0.51300210  0.05560523  0.14888755     0.00600
C1233       C  0.48634896  0.06369956  0.13310673    -0.07900
C1234       C  0.49048248  0.06305282  0.10590452    -0.05300
C1235       C  0.51989990  0.05458149  0.09442428     0.00600
C1236       C  0.54475688  0.04433893  0.10995568    -0.07900
C1237       C  0.57735042  0.03558048  0.09797603     0.62500
H1238       H  0.55974310  0.03711183  0.14905665     0.13200
H1239       H  0.47201594  0.07085042  0.09332198     0.13200
C1240       C  0.45510387  0.07474229  0.14455457     0.62800
F1241       F  0.59863489  0.02668813  0.11658615    -0.22400
F1242       F  0.60638397  0.07001295  0.08414290    -0.19700
F1243       F  0.55804194  0.00174995  0.08140099    -0.19400
F1244       F  0.47566260  0.11006026  0.15987044    -0.19500
F1245       F  0.42583045  0.04185980  0.15933440    -0.19800
F1246       F  0.43378414  0.08272344  0.12548708    -0.22500
C1247       C  0.52518519  0.03769098  0.38717161    -0.05300
C1248       C  0.56348395  0.06591670  0.39861996     0.00600
C1249       C  0.59806266  0.09258151  0.38270754    -0.07900
C1250       C  0.59226434  0.09127009  0.35563281    -0.05300
C1251       C  0.55342477  0.06400357  0.34434798     0.00600
C1252       C  0.51938956  0.03629071  0.36021552    -0.07900
C1253       C  0.47636599  0.00735459  0.34894682     0.62500
H1254       H  0.49917724  0.01782379  0.39976302     0.13200
H1255       H  0.61774143  0.11220212  0.34305092     0.13200
C1256       C  0.64016601  0.12345450  0.39428827     0.62800
F1257       F  0.44715411  0.98509171  0.36806012    -0.22400
F1258       F  0.47826625  0.97899337  0.33227110    -0.19700
F1259       F  0.46256407  0.03042589  0.33554042    -0.19400
F1260       F  0.65641297  0.10210620  0.40718100    -0.19500
F1261       F  0.63554708  0.14961099  0.41155868    -0.19800
F1262       F  0.66873669  0.14793698  0.37542233    -0.22500
C1263       C  0.71774255  0.22973615  0.97854274    -0.05300
C1264       C  0.69543619  0.21661615  0.00215198     0.00600
C1265       C  0.69519830  0.25232694  0.49187432    -0.07900
C1266       C  0.73412337  0.28906389  0.49086890    -0.05300
C1267       C  0.77173678  0.28828093  0.49180586     0.00600
C1268       C  0.75539091  0.26778236  0.97615082    -0.07900
C1269       C  0.77539914  0.28178388  0.94948111     0.62500
H1270       H  0.70508314  0.21010967  0.96155562     0.16800
H1271       H  0.73555862  0.31895566  0.48962871     0.13200
C1272       C  0.65506912  0.25409817  0.48989571     0.62800
F1273       F  0.81335012  0.28283240  0.94877510    -0.22400
F1274       F  0.78147214  0.32100153  0.94408186    -0.19700
F1275       F  0.80283442  0.20723288  0.49764244    -0.19400
F1276       F  0.68495232  0.19690804  0.06097525    -0.19500
F1277       F  0.63172005  0.23006660  0.46912509    -0.19800
F1278       F  0.66294979  0.29438912  0.48614944    -0.22500
Zn1279     Zn  0.60190211  0.09801637  0.97888174     1.49700
Zn1280     Zn  0.57214232  0.12410305  0.52143731     1.49400
Zn1281     Zn  0.51487400  0.08602470  0.97490579     1.49100
Zn1282     Zn  0.53086852  0.02734846  0.51568286     1.49500
O1283       O  0.55330286  0.07918113  0.49705080    -1.83600
O1284       O  0.63872058  0.15967816  0.98026656    -0.74300
O1285       O  0.54532936  0.15751631  0.51357657    -0.74100
O1286       O  0.53303157  0.08405923  0.93815020    -0.73600
O1287       O  0.63386012  0.16531161  0.51734648    -0.74300
O1288       O  0.59111786  0.08048104  0.94163025    -0.73900
O1289       O  0.51512302  0.14051383  0.98114995    -0.74500
O1290       O  0.47514228  0.98333438  0.49605583    -0.73900
O1291       O  0.55579591  0.10264266  0.55769220    -0.74600
O1292       O  0.45846274  0.03446031  0.97850988    -0.74000
O1293       O  0.51259851  0.03486268  0.55137858    -0.74500
O1294       O  0.58342312  0.02141161  0.52587514    -0.74400
O1295       O  0.63370491  0.07803399  0.99886987    -0.74200
C1296       C  0.65498471  0.17455609  0.49632491     0.77600
C1297       C  0.53312495  0.16795747  0.99890537     0.78100
C1298       C  0.56223056  0.07978711  0.92792336     0.77100
C1299       C  0.44740412  0.99646701  0.98328422     0.77400
C1300       C  0.52944126  0.06661020  0.56626457     0.78600
C1301       C  0.62232903  0.04457047  0.51976505     0.77600
Zn1302     Zn  0.50825645  0.02827860  0.76664194     1.49700
Zn1303     Zn  0.57672838  0.08013370  0.72307755     1.49400
Zn1304     Zn  0.49811304  0.08969730  0.72847685     1.49100
Zn1305     Zn  0.56170809  0.12586015  0.77146648     1.49500
O1306       O  0.53713560  0.07998994  0.74744975    -1.83600
O1307       O  0.52259832  0.98449427  0.74852123    -0.74300
O1308       O  0.55561095  0.07792061  0.68656620    -0.74100
O1309       O  0.44562104  0.06654579  0.74920993    -0.73600
O1310       O  0.58098797  0.02823888  0.72705423    -0.74300
O1311       O  0.44866116  0.02071359  0.77574851    -0.73900
O1312       O  0.49244286  0.07114693  0.69134913    -0.74500
O1313       O  0.53784679  0.16435743  0.76808806    -0.73900
O1314       O  0.63348568  0.13163464  0.72827106    -0.74600
O1315       O  0.51552735  0.14997143  0.72762932    -0.74000
O1316       O  0.62211535  0.16018751  0.76328711    -0.74500
O1317       O  0.55713760  0.10576022  0.80791188    -0.74400
O1318       O  0.53207653  0.03762339  0.80287034    -0.74200
C1319       C  0.55551502  0.99166426  0.73530958     0.77600
C1320       C  0.52128338  0.07224413  0.67708511     0.78100
C1321       C  0.43155063  0.04193662  0.76847889     0.77100
C1322       C  0.52455404  0.17301945  0.74764930     0.77400
C1323       C  0.64629667  0.15977883  0.74579345     0.78600
C1324       C  0.54689098  0.07008581  0.81713382     0.77600
Zn1325     Zn  0.59126757  0.47568221  0.51174786     1.49700
Zn1326     Zn  0.57963231  0.41518992  0.97197635     1.49400
Zn1327     Zn  0.53656611  0.38462990  0.52756785     1.49100
Zn1328     Zn  0.50475231  0.43025011  0.98594966     1.49500
O1329       O  0.55477126  0.43143628  0.99881399    -1.83600
O1330       O  0.64654660  0.47767797  0.50567378    -0.74300
O1331       O  0.55948700  0.35404120  0.97532504    -0.74100
O1332       O  0.56031213  0.41410488  0.56148767    -0.73600
O1333       O  0.64183011  0.44606984  0.97678089    -0.74300
O1334       O  0.58599880  0.48071933  0.55061608    -0.73900
O1335       O  0.54883271  0.33866663  0.51813063    -0.74500
O1336       O  0.45148708  0.37760925  0.00531651    -0.73900
O1337       O  0.56159577  0.42223542  0.93703452    -0.74600
O1338       O  0.47617919  0.35206143  0.53254394    -0.74000
O1339       O  0.50023988  0.41711670  0.94664533    -0.74500
O1340       O  0.52061017  0.49476797  0.98488481    -0.74400
O1341       O  0.58668594  0.52056236  0.49287644    -0.74200
C1342       C  0.66543702  0.47375686  0.99309680     0.77600
C1343       C  0.54028138  0.32092274  0.49591347     0.78100
C1344       C  0.57537594  0.45231895  0.56767928     0.77100
C1345       C  0.44336610  0.34942362  0.52312244     0.77400
C1346       C  0.52686906  0.41849746  0.93006824     0.78600
C1347       C  0.55679461  0.52856483  0.98602774     0.77600
Zn1348     Zn  0.51758901  0.40007223  0.72225078     1.49700
Zn1349     Zn  0.57162364  0.40815415  0.77193324     1.49400
Zn1350     Zn  0.60509854  0.47523381  0.73041046     1.49100
Zn1351     Zn  0.53279382  0.46588857  0.76877372     1.49500
O1352       O  0.55458206  0.43668312  0.74842690    -1.83600
O1353       O  0.51036408  0.34200903  0.72537406    -0.74300
O1354       O  0.63254479  0.42658665  0.76795725    -0.74100
O1355       O  0.59584582  0.48603107  0.69345242    -0.73600
O1356       O  0.54416559  0.34898622  0.76225924    -0.74300
O1357       O  0.53994211  0.42367984  0.68657000    -0.73900
O1358       O  0.64401172  0.45307763  0.72829849    -0.74500
O1359       O  0.58715302  0.52437986  0.77878785    -0.73900
O1360       O  0.55513106  0.41064872  0.80875893    -0.74600
O1361       O  0.63628564  0.52464563  0.75310851    -0.74000
O1362       O  0.51556019  0.43966790  0.80488913    -0.74500
O1363       O  0.47530118  0.45335351  0.75015993    -0.74400
O1364       O  0.46271485  0.39841220  0.72565434    -0.74200
C1365       C  0.52297539  0.32707849  0.74311816     0.77600
C1366       C  0.65462681  0.43894679  0.74738376     0.78100
C1367       C  0.56915065  0.45857840  0.67816939     0.77100
C1368       C  0.62597520  0.53902892  0.77244866     0.77400
C1369       C  0.53033273  0.42146256  0.81862527     0.78600
C1370       C  0.45059310  0.42240190  0.73532100     0.77600
Zn1371     Zn  0.94712712  0.44363908  0.76610054     1.49700
Zn1372     Zn  0.84990338  0.39586501  0.77151881     1.49400
Zn1373     Zn  0.89166935  0.45271819  0.72140346     1.49100
Zn1374     Zn  0.88813389  0.36906013  0.72930529     1.49500
O1375       O  0.89537491  0.41768008  0.74720776    -1.83600
O1376       O  0.93754391  0.46072851  0.80197564    -0.74300
O1377       O  0.81271628  0.41704305  0.76169196    -0.74100
O1378       O  0.94168989  0.51011735  0.72342449    -0.73600
O1379       O  0.86978578  0.41620222  0.80793332    -0.74300
O1380       O  0.98808497  0.50055106  0.74540875    -0.73900
O1381       O  0.83729785  0.45346938  0.72526888    -0.74500
O1382       O  0.90952909  0.38085562  0.69226412    -0.73900
O1383       O  0.81277535  0.33276762  0.76818506    -0.74600
O1384       O  0.89644050  0.43267458  0.68580649    -0.74000
O1385       O  0.82802074  0.32712435  0.72731074    -0.74500
O1386       O  0.90917806  0.34090565  0.75257559    -0.74400
O1387       O  0.95608763  0.39287124  0.77719758    -0.74200
C1388       C  0.90547129  0.44322960  0.81675983     0.77600
C1389       C  0.80946471  0.43745926  0.74300614     0.78100
C1390       C  0.97910178  0.52374294  0.73110599     0.77100
C1391       C  0.90671827  0.40665426  0.67727155     0.77400
C1392       C  0.80394920  0.31244392  0.74683403     0.78600
C1393       C  0.93397685  0.35360471  0.77178938     0.77600
Zn1394     Zn  0.88982911  0.47771933  0.97989079     1.49700
Zn1395     Zn  0.85189396  0.41160404  0.52192312     1.49400
Zn1396     Zn  0.89406752  0.39755182  0.97526713     1.49100
Zn1397     Zn  0.94914254  0.46157117  0.51728519     1.49500
O1398       O  0.89903330  0.43919085  0.99895737    -1.83600
O1399       O  0.82981891  0.46111983  0.98119787    -0.74300
O1400       O  0.81149486  0.35382630  0.51118383    -0.74100
O1401       O  0.89491823  0.41664219  0.93829403    -0.73600
O1402       O  0.81909731  0.44160957  0.51985721    -0.74300
O1403       O  0.90563351  0.48117670  0.94223835    -0.73900
O1404       O  0.84039494  0.34319719  0.98234966    -0.74500
O1405       O  0.99201397  0.44513094  0.49866139    -0.73900
O1406       O  0.87076428  0.40916762  0.55827029    -0.74600
O1407       O  0.94497452  0.39183540  0.97821118    -0.74000
O1408       O  0.93918847  0.43539103  0.55275089    -0.74500
O1409       O  0.95410780  0.52011555  0.52798681    -0.74400
O1410       O  0.91455127  0.53074584  0.99969307    -0.74200
C1411       C  0.81005844  0.45403930  0.49913925     0.77600
C1412       C  0.81058312  0.33448796  0.99831244     0.78100
C1413       C  0.90192928  0.45101147  0.92830315     0.77100
C1414       C  0.98297558  0.41672940  0.98445551     0.77400
C1415       C  0.90653066  0.41814365  0.56698861     0.78600
C1416       C  0.93547635  0.53909462  0.51908435     0.77600
Zn1417     Zn  0.55997678  0.73071987  0.64138457     1.49700
Zn1418     Zn  0.55725893  0.81144755  0.64580887     1.49400
Zn1419     Zn  0.51859442  0.75125173  0.68929909     1.49100
Zn1420     Zn  0.61592384  0.79909183  0.68458391     1.49500
O1421       O  0.56437208  0.77185868  0.66541301    -1.83600
O1422       O  0.56513623  0.75250223  0.60483807    -0.74300
O1423       O  0.49683531  0.79417401  0.64396661    -0.74100
O1424       O  0.47749333  0.69304706  0.67994196    -0.73600
O1425       O  0.57865631  0.81783403  0.60942728    -0.74300
O1426       O  0.50422183  0.67671787  0.64604623    -0.73900
O1427       O  0.48584184  0.78100398  0.68599340    -0.74500
O1428       O  0.60545990  0.77304980  0.72034251    -0.73900
O1429       O  0.57914549  0.86274758  0.66669883    -0.74600
O1430       O  0.53786081  0.75206033  0.72561282    -0.74000
O1431       O  0.62148259  0.85814227  0.69545703    -0.74500
O1432       O  0.65776409  0.78208051  0.66490002    -0.74400
O1433       O  0.61008660  0.72364687  0.64525051    -0.74200
C1434       C  0.57511261  0.78799977  0.59526163     0.77600
C1435       C  0.47535412  0.78948784  0.66433213     0.78100
C1436       C  0.47475120  0.66756666  0.66241166     0.77100
C1437       C  0.57281881  0.75906306  0.73460663     0.77400
C1438       C  0.59991334  0.87475499  0.68764736     0.78600
C1439       C  0.64799007  0.74823018  0.65191677     0.77600
Zn1440     Zn  0.52284640  0.74191874  0.94280056     1.49700
Zn1441     Zn  0.61840860  0.77901355  0.93341151     1.49400
Zn1442     Zn  0.54920476  0.71075490  0.89684330     1.49100
Zn1443     Zn  0.56508516  0.79976585  0.89369324     1.49500
O1444       O  0.56540268  0.76008866  0.91678387    -1.83600
O1445       O  0.54723276  0.76139886  0.97812485    -0.74300
O1446       O  0.62030016  0.72320914  0.94102495    -0.74100
O1447       O  0.48753437  0.67344427  0.89840723    -0.73600
O1448       O  0.61557872  0.79675129  0.97007708    -0.74300
O1449       O  0.48335811  0.67989497  0.94104428    -0.73900
O1450       O  0.56780250  0.67723404  0.91638662    -0.74500
O1451       O  0.56756209  0.78296761  0.85676749    -0.73900
O1452       O  0.66201732  0.83621015  0.91474611    -0.74600
O1453       O  0.56706084  0.72287734  0.85923894    -0.74000
O1454       O  0.61752569  0.85456315  0.89865691    -0.74500
O1455       O  0.51281082  0.80359549  0.89921832    -0.74400
O1456       O  0.48697523  0.76570508  0.93503560    -0.74200
C1457       C  0.58479025  0.78439226  0.98567043     0.77600
C1458       C  0.59373655  0.68521517  0.93463862     0.78100
C1459       C  0.46857925  0.65989643  0.91994336     0.77100
C1460       C  0.57045577  0.75347473  0.84603043     0.77400
C1461       C  0.65477870  0.86374841  0.90432940     0.78600
C1462       C  0.48517722  0.78806116  0.91711371     0.77600
Zn1463     Zn  0.18061824  0.36221202  0.93681074     1.49700
Zn1464     Zn  0.17028722  0.42413476  0.89974246     1.49400
Zn1465     Zn  0.22870010  0.45914365  0.94406949     1.49100
Zn1466     Zn  0.25083319  0.41990653  0.89531158     1.49500
O1467       O  0.20884209  0.41501026  0.91908717    -1.83600
O1468       O  0.12033030  0.35401733  0.94605759    -0.74300
O1469       O  0.18778784  0.48425257  0.89937652    -0.74100
O1470       O  0.22557340  0.43723472  0.97982269    -0.73600
O1471       O  0.11767175  0.40052827  0.91998703    -0.74300
O1472       O  0.20424549  0.37009795  0.97309476    -0.73900
O1473       O  0.19985336  0.49313237  0.94142062    -0.74500
O1474       O  0.30495762  0.47494740  0.90150148    -0.73900
O1475       O  0.16540806  0.40518887  0.86276447    -0.74600
O1476       O  0.28792110  0.49948347  0.93616410    -0.74000
O1477       O  0.23030463  0.41651595  0.85849018    -0.74500
O1478       O  0.25742440  0.36929916  0.89824665    -0.74400
O1479       O  0.19754097  0.32132391  0.91651215    -0.74200
C1480       C  0.10317463  0.37533432  0.93892519     0.77600
C1481       C  0.19149533  0.50456673  0.92011611     0.78100
C1482       C  0.21781861  0.40174127  0.98806243     0.77100
C1483       C  0.31406432  0.50309374  0.91874831     0.77400
C1484       C  0.19510001  0.40758710  0.84874566     0.78600
C1485       C  0.23182229  0.33121838  0.90391093     0.77600
Zn1486     Zn  0.23284291  0.46200094  0.69124504     1.49700
Zn1487     Zn  0.17825789  0.41292234  0.64224290     1.49400
Zn1488     Zn  0.26752482  0.42870453  0.64967166     1.49100
Zn1489     Zn  0.19701420  0.36401421  0.68692638     1.49500
O1490       O  0.21695768  0.41578620  0.66787420    -1.83600
O1491       O  0.20196215  0.49137094  0.68234239    -0.74300
O1492       O  0.19964967  0.40985413  0.60659120    -0.74100
O1493       O  0.30598356  0.48961169  0.64743910    -0.73600
O1494       O  0.17047751  0.46326837  0.64484332    -0.74300
O1495       O  0.29408054  0.50634676  0.68677351    -0.73900
O1496       O  0.25775766  0.40707507  0.61322934    -0.74500
O1497       O  0.25148745  0.35941644  0.69578984    -0.73900
O1498       O  0.12336439  0.35973518  0.64625586    -0.74600
O1499       O  0.29950364  0.41125136  0.67168305    -0.74000
O1500       O  0.13943412  0.31811995  0.66857705    -0.74500
O1501       O  0.18150034  0.37267741  0.72340609    -0.74400
O1502       O  0.21819541  0.44174890  0.72791534    -0.74200
C1503       C  0.18096688  0.49066529  0.66269915     0.77600
C1504       C  0.22959067  0.40512375  0.59822567     0.78100
C1505       C  0.31651331  0.51499159  0.66630134     0.77100
C1506       C  0.29010124  0.38505999  0.68988750     0.77400
C1507       C  0.11326556  0.32365274  0.65484323     0.78600
C1508       C  0.19548657  0.40546740  0.73739809     0.77600
Zn1509     Zn  0.20129332  0.71888593  0.69086645     1.49700
Zn1510     Zn  0.16284547  0.75912900  0.64964674     1.49400
Zn1511     Zn  0.25521731  0.80858783  0.67587375     1.49100
Zn1512     Zn  0.23012853  0.73434837  0.63703990     1.49500
O1513       O  0.21072062  0.75663650  0.66313158    -1.83600
O1514       O  0.14198536  0.68850169  0.69577978    -0.74300
O1515       O  0.18527823  0.82520294  0.64647551    -0.74100
O1516       O  0.24906838  0.81386625  0.71502478    -0.73600
O1517       O  0.10816673  0.71163107  0.67181419    -0.74300
O1518       O  0.22340397  0.74710576  0.72508985    -0.73900
O1519       O  0.25352460  0.85434371  0.65600760    -0.74500
O1520       O  0.29092010  0.75558277  0.64271718    -0.73900
O1521       O  0.15642932  0.74326974  0.61035433    -0.74600
O1522       O  0.30925093  0.80838709  0.67047347    -0.74000
O1523       O  0.21672608  0.74543380  0.60189317    -0.74500
O1524       O  0.20119045  0.67260920  0.64035827    -0.74400
O1525       O  0.21150748  0.67152985  0.68235392    -0.74200
C1526       C  0.10795174  0.68562787  0.68875835     0.77600
C1527       C  0.22303817  0.85694902  0.64656907     0.78100
C1528       C  0.23777123  0.78494142  0.73184181     0.77100
C1529       C  0.31764937  0.78422758  0.65732824     0.77400
C1530       C  0.18311135  0.74349650  0.59419902     0.78600
C1531       C  0.20169093  0.65316513  0.66038685     0.77600
Zn1532     Zn  0.18647755  0.73050117  0.88914951     1.49700
Zn1533     Zn  0.27088818  0.80966449  0.89548823     1.49400
Zn1534     Zn  0.19746811  0.79680308  0.93395721     1.49100
Zn1535     Zn  0.24278381  0.74541730  0.93893461     1.49500
O1536       O  0.22234904  0.76979587  0.91448776    -1.83600
O1537       O  0.20739446  0.75100656  0.85277169    -0.74300
O1538       O  0.29933793  0.86138052  0.91685098    -0.74100
O1539       O  0.14099090  0.78261967  0.91381363    -0.73600
O1540       O  0.25905872  0.81618475  0.85790448    -0.74300
O1541       O  0.13111703  0.72716473  0.89079275    -0.73900
O1542       O  0.24938366  0.85624647  0.94386850    -0.74500
O1543       O  0.22531659  0.74883627  0.97535952    -0.73900
O1544       O  0.31339716  0.79181822  0.89490618    -0.74600
O1545       O  0.17956866  0.77030789  0.96998947    -0.74000
O1546       O  0.30504318  0.76925895  0.93544473    -0.74500
O1547       O  0.21772204  0.68516432  0.93097408    -0.74400
O1548       O  0.18007713  0.67373068  0.89520164    -0.74200
C1549       C  0.23348941  0.78646215  0.84331469     0.77600
C1550       C  0.28803289  0.87413571  0.93657830     0.78100
C1551       C  0.11788316  0.75097684  0.89902449     0.77100
C1552       C  0.19701904  0.75547382  0.98438103     0.77400
C1553       C  0.32675428  0.78180178  0.91466133     0.78600
C1554       C  0.19465862  0.66101913  0.91306980     0.77600
Zn1555     Zn  0.18121546  0.08023184  0.85343621     1.49700
Zn1556     Zn  0.27917819  0.13043727  0.85050944     1.49400
Zn1557     Zn  0.22572004  0.06694514  0.80493843     1.49100
Zn1558     Zn  0.22259760  0.14707157  0.81238683     1.49500
O1559       O  0.22840046  0.10528071  0.83058296    -1.83600
O1560       O  0.19852026  0.07711489  0.88986235    -0.74300
O1561       O  0.32135397  0.11475331  0.83049077    -0.74100
O1562       O  0.17118016  0.01237532  0.80628569    -0.73600
O1563       O  0.26669653  0.10120422  0.88543800    -0.74300
O1564       O  0.14197620  0.02262928  0.84138913    -0.73900
O1565       O  0.27432445  0.05857185  0.80888326    -0.74500
O1566       O  0.24512487  0.15653762  0.77583607    -0.73900
O1567       O  0.28770826  0.19037947  0.86178139    -0.74600
O1568       O  0.23286135  0.09205887  0.76961240    -0.74000
O1569       O  0.24482729  0.19745044  0.83468796    -0.74500
O1570       O  0.16259377  0.12972523  0.81013743    -0.74400
O1571       O  0.14748571  0.10906278  0.85100072    -0.74200
C1572       C  0.23332114  0.08409636  0.89916030     0.77600
C1573       C  0.31180570  0.08197071  0.81648762     0.78100
C1574       C  0.14090231  0.00034781  0.82227070     0.77100
C1575       C  0.24309651  0.12802687  0.76093843     0.77400
C1576       C  0.26833479  0.20955508  0.85449599     0.78600
C1577       C  0.13920787  0.12143083  0.83001196     0.77600
Zn1578     Zn  0.23521411  0.14314044  0.59505201     1.49700
Zn1579     Zn  0.27522859  0.09174361  0.56708721     1.49400
Zn1580     Zn  0.20166580  0.05370331  0.61167270     1.49100
Zn1581     Zn  0.18214798  0.06600857  0.55954121     1.49500
O1582       O  0.22682693  0.09042978  0.58313249    -1.83600
O1583       O  0.28343247  0.18796761  0.57519179    -0.74300
O1584       O  0.28240841  0.04304551  0.58641333    -0.74100
O1585       O  0.21293187  0.08397395  0.64537172    -0.73600
O1586       O  0.32058865  0.15740813  0.56389252    -0.74300
O1587       O  0.24877181  0.15048544  0.63335648    -0.73900
O1588       O  0.22881186  0.02118190  0.61385412    -0.74500
O1589       O  0.15024135  0.00437349  0.56419333    -0.73900
O1590       O  0.26166028  0.07545950  0.52845807    -0.74600
O1591       O  0.14215643  0.00813252  0.60624446    -0.74000
O1592       O  0.20268945  0.07682662  0.52350518    -0.74500
O1593       O  0.14304649  0.08678182  0.56736111    -0.74400
O1594       O  0.18112402  0.14392997  0.59116137    -0.74200
C1595       C  0.31622413  0.19002509  0.56537088     0.77600
C1596       C  0.25815359  0.01731263  0.60408817     0.78100
C1597       C  0.23487444  0.12254584  0.65087478     0.77100
C1598       C  0.13169890  0.98715530  0.58525402     0.77400
C1599       C  0.23361633  0.07515083  0.51385814     0.78600
C1600       C  0.14677142  0.11753620  0.58055897     0.77600
Zn1601     Zn  0.88150878  0.69716368  0.82068766     1.49700
Zn1602     Zn  0.83675256  0.74275912  0.84863087     1.49400
Zn1603     Zn  0.92807566  0.78040998  0.85763420     1.49100
Zn1604     Zn  0.90392069  0.78739762  0.80453346     1.49500
O1605       O  0.88664135  0.74929454  0.83253695    -1.83600
O1606       O  0.81515728  0.65413189  0.81962140    -0.74300
O1607       O  0.83732849  0.73545693  0.88782997    -0.74100
O1608       O  0.95886902  0.75212733  0.86270941    -0.73600
O1609       O  0.78849223  0.69417990  0.83148562    -0.74300
O1610       O  0.92876992  0.69073121  0.84237472    -0.73900
O1611       O  0.90488507  0.77935622  0.89238673    -0.74500
O1612       O  0.96577213  0.82608840  0.80442248    -0.73900
O1613       O  0.83549977  0.79588991  0.84294490    -0.74600
O1614       O  0.97174396  0.83753855  0.84682240    -0.74000
O1615       O  0.88002675  0.82436376  0.80981207    -0.74500
O1616       O  0.89047454  0.75831234  0.77079787    -0.74400
O1617       O  0.89543052  0.70257816  0.78128238    -0.74200
C1618       C  0.78398435  0.66090777  0.82110819     0.77600
C1619       C  0.86895861  0.75697245  0.90232309     0.78100
C1620       C  0.95780987  0.71835840  0.85721818     0.77100
C1621       C  0.98635851  0.84724253  0.82394272     0.77400
C1622       C  0.85539634  0.82538068  0.82680691     0.78600
C1623       C  0.89330269  0.72663907  0.76433328     0.77600
Zn1624     Zn  0.83492816  0.75476085  0.56699565     1.49700
Zn1625     Zn  0.89896892  0.78810226  0.60981574     1.49400
Zn1626     Zn  0.84459888  0.69015693  0.60216129     1.49100
Zn1627     Zn  0.91243643  0.74880284  0.55853077     1.49500
O1628       O  0.87371495  0.74384646  0.58482936    -1.83600
O1629       O  0.85488709  0.81539440  0.56706174    -0.74300
O1630       O  0.89539810  0.76480027  0.64544852    -0.74100
O1631       O  0.78422894  0.68329722  0.61208249    -0.73600
O1632       O  0.87500740  0.82674639  0.60801465    -0.74300
O1633       O  0.78382612  0.73293369  0.58799619    -0.73900
O1634       O  0.86919007  0.69686011  0.63862381    -0.74500
O1635       O  0.91608874  0.69718461  0.55824832    -0.73900
O1636       O  0.95931014  0.82453860  0.60103826    -0.74600
O1637       O  0.86063476  0.64900952  0.58005850    -0.74000
O1638       O  0.96922084  0.79936982  0.56414681    -0.74500
O1639       O  0.89141908  0.75267424  0.52305518    -0.74400
O1640       O  0.82542354  0.73615325  0.52985625    -0.74200
C1641       C  0.86367356  0.83747676  0.58752726     0.77600
C1642       C  0.88570027  0.72865664  0.65364039     0.78100
C1643       C  0.76826387  0.70628279  0.60604885     0.77100
C1644       C  0.89261437  0.65936960  0.56482232     0.77400
C1645       C  0.98261942  0.82663158  0.58213258     0.78600
C1646       C  0.85553576  0.74378452  0.51453404     0.77600
Zn1647     Zn  0.90936868  0.12087428  0.80325937     1.49700
Zn1648     Zn  0.84874891  0.11385932  0.85101654     1.49400
Zn1649     Zn  0.83189133  0.03735550  0.81316511     1.49100
Zn1650     Zn  0.90006374  0.06819378  0.85313397     1.49500
O1651       O  0.87298254  0.08719935  0.83018806    -1.83600
O1652       O  0.91611985  0.17683030  0.80640568    -0.74300
O1653       O  0.78966901  0.06175199  0.86328131    -0.74100
O1654       O  0.81955058  0.04675590  0.77681003    -0.73600
O1655       O  0.86590142  0.17299381  0.83214694    -0.74300
O1656       O  0.88308165  0.10012077  0.76840017    -0.73900
O1657       O  0.78370402  0.01149850  0.83641104    -0.74500
O1658       O  0.87711244  0.00687816  0.85144652    -0.73900
O1659       O  0.87746625  0.13056685  0.88632582    -0.74600
O1660       O  0.84876628  0.99372859  0.81229312    -0.74000
O1661       O  0.89849080  0.08449074  0.88937475    -0.74500
O1662       O  0.95933129  0.09350042  0.84300342    -0.74400
O1663       O  0.96604056  0.12558865  0.80544633    -0.74200
C1664       C  0.89715247  0.19404883  0.81641440     0.77600
C1665       C  0.77264261  0.02283464  0.85681153     0.78100
C1666       C  0.84659807  0.07276822  0.76106351     0.77100
C1667       C  0.86214371  0.98315264  0.83185386     0.77400
C1668       C  0.89206659  0.11186471  0.89970476     0.78600
C1669       C  0.98111583  0.11384572  0.82352457     0.77600
Zn1670     Zn  0.86160170  0.12828378  0.60225043     1.49700
Zn1671     Zn  0.90645168  0.07661121  0.60824173     1.49400
Zn1672     Zn  0.84773426  0.05918463  0.55923149     1.49100
Zn1673     Zn  0.93353273  0.13754642  0.56476453     1.49500
O1674       O  0.88472924  0.09927891  0.58360616    -1.83600
O1675       O  0.84153979  0.10066264  0.63719629    -0.74300
O1676       O  0.88670913  0.01789478  0.59902212    -0.74100
O1677       O  0.79165999  0.05507420  0.56270496    -0.73600
O1678       O  0.88407642  0.07538568  0.64376460    -0.74300
O1679       O  0.80464885  0.11420141  0.58223942    -0.73900
O1680       O  0.84494837  0.00337327  0.56489803    -0.74500
O1681       O  0.92178249  0.14400986  0.52749093    -0.73900
O1682       O  0.96948158  0.10568175  0.60690220    -0.74600
O1683       O  0.86694910  0.08031392  0.52258932    -0.74000
O1684       O  0.97495615  0.11837587  0.56475435    -0.74500
O1685       O  0.96373077  0.18884967  0.58598648    -0.74400
O1686       O  0.91585625  0.18639283  0.61360673    -0.74200
C1687       C  0.85603096  0.08318689  0.65174629     0.77600
C1688       C  0.86304897  0.99269897  0.58173556     0.78100
C1689       C  0.77957696  0.08060603  0.56945962     0.77100
C1690       C  0.89486772  0.11504567  0.51307509     0.77400
C1691       C  0.99061186  0.11507259  0.58585704     0.78600
C1692       C  0.95442504  0.20209615  0.60633323     0.77600
C1693       C  0.87738803  0.13663695  0.94122900    -0.05300
C1694       C  0.89931733  0.11993792  0.92807655     0.00600
C1695       C  0.92445516  0.10811676  0.94271613    -0.07900
C1696       C  0.92341538  0.11004595  0.96990008    -0.05300
C1697       C  0.89891862  0.12353987  0.98275196     0.00600
C1698       C  0.87659623  0.13837458  0.96850825    -0.07900
C1699       C  0.97354540  0.14626033  0.48089708     0.62500
H1700       H  0.85889444  0.14623355  0.93008658     0.13200
H1701       H  0.94038136  0.09912822  0.98152785     0.13200
C1702       C  0.95168692  0.09251396  0.93033113     0.62800
F1703       F  0.83228662  0.16844577  0.96491137    -0.22400
F1704       F  0.97060377  0.11453775  0.49641887    -0.19700
F1705       F  0.98656121  0.18189878  0.49566399    -0.19400
F1706       F  0.97532828  0.11875249  0.91035935    -0.19500
F1707       F  0.92687347  0.05245775  0.92091308    -0.19800
F1708       F  0.97918943  0.09135372  0.94801322    -0.22500
C1709       C  0.83477043  0.03708135  0.71918309    -0.05300
C1710       C  0.83700954  0.07045711  0.73335214     0.00600
C1711       C  0.83665138  0.10377382  0.72035990    -0.07900
C1712       C  0.83899473  0.10493934  0.69314033    -0.05300
C1713       C  0.84209622  0.07407882  0.67902298     0.00600
C1714       C  0.83676292  0.03800753  0.69196877    -0.07900
C1715       C  0.83574409  0.00159969  0.67765226     0.62500
H1716       H  0.83443253  0.01153204  0.72957306     0.13200
H1717       H  0.84172706  0.13165322  0.68288318     0.13200
C1718       C  0.83469028  0.13820727  0.73528252     0.62800
F1719       F  0.81430511  0.96522348  0.69193079    -0.22400
F1720       F  0.87616037  0.00965795  0.67353527    -0.19700
F1721       F  0.81565866  0.99493400  0.65404653    -0.19400
F1722       F  0.87082648  0.16105923  0.74950745    -0.19500
F1723       F  0.80068584  0.12085290  0.75198521    -0.19800
F1724       F  0.83036837  0.16527661  0.71886402    -0.22500
C1725       C  0.86552701  0.89509742  0.56240974    -0.05300
C1726       C  0.86100420  0.87619398  0.58680017     0.00600
C1727       C  0.85322605  0.89411788  0.60908998    -0.07900
C1728       C  0.85171117  0.93101265  0.60606563    -0.05300
C1729       C  0.85767887  0.95046269  0.58184609     0.00600
C1730       C  0.86434766  0.93218321  0.55952005    -0.07900
C1731       C  0.87229287  0.95271356  0.53302927     0.62500
H1732       H  0.87122940  0.88113907  0.54550048     0.13200
H1733       H  0.84698311  0.94586725  0.62290045     0.13200
C1734       C  0.84643769  0.87490232  0.63596730     0.62800
F1735       F  0.90622297  0.99276780  0.53428116    -0.22400
F1736       F  0.83733877  0.95423806  0.52520702    -0.19700
F1737       F  0.88085787  0.93103805  0.51430603    -0.19400
F1738       F  0.88318389  0.87788140  0.64470069    -0.19500
F1739       F  0.81526013  0.83349148  0.63509009    -0.19800
F1740       F  0.83439745  0.89491126  0.65390287    -0.22500
C1741       C  0.82155404  0.90659374  0.82773702    -0.05300
C1742       C  0.86040100  0.94273213  0.83187158     0.00600
C1743       C  0.89672247  0.93974847  0.83575445    -0.07900
C1744       C  0.89316623  0.90041788  0.83382874    -0.05300
C1745       C  0.85451578  0.86434197  0.82944225     0.00600
C1746       C  0.81777923  0.86688425  0.82720810    -0.07900
C1747       C  0.77527837  0.82806911  0.82407093     0.62500
H1748       H  0.79410699  0.90973774  0.82543236     0.13200
H1749       H  0.92068184  0.89733767  0.83603286     0.13200
C1750       C  0.93912663  0.97780262  0.84142493     0.62800
F1751       F  0.74394058  0.83771946  0.82058076    -0.22400
F1752       F  0.76579010  0.80367154  0.84607334    -0.19700
F1753       F  0.77571472  0.80545164  0.80274444    -0.19400
F1754       F  0.93805781  0.99443106  0.86532206    -0.19500
F1755       F  0.94915586  0.00757251  0.82239628    -0.19800
F1756       F  0.97069943  0.96800119  0.84213962    -0.22500
C1757       C  0.83089785  0.71959258  0.94243748    -0.05300
C1758       C  0.86496190  0.75494370  0.93114845     0.00600
C1759       C  0.89538767  0.78637510  0.94766080    -0.07900
C1760       C  0.89168207  0.77975979  0.97451636    -0.05300
C1761       C  0.85851342  0.74404660  0.98568669     0.00600
C1762       C  0.82684134  0.71368768  0.96956643    -0.07900
C1763       C  0.79234755  0.67002631  0.48333128     0.62500
H1764       H  0.80767655  0.69611354  0.92978534     0.13200
H1765       H  0.91509389  0.80291357  0.98726159     0.13200
C1766       C  0.93177110  0.82717720  0.93760044     0.62800
F1767       F  0.76901822  0.64014735  0.46487003    -0.22400
F1768       F  0.76496724  0.67458958  0.49959530    -0.19700
F1769       F  0.81425190  0.65574293  0.49755035    -0.19400
F1770       F  0.91744130  0.84531529  0.92007752    -0.19500
F1771       F  0.96128993  0.81985224  0.92584078    -0.19800
F1772       F  0.95161804  0.85575932  0.95738492    -0.22500
C1773       C  0.92887132  0.75102933  0.72236471    -0.05300
C1774       C  0.89512680  0.71959923  0.73623519     0.00600
C1775       C  0.86073624  0.68776554  0.72263747    -0.07900
C1776       C  0.86005081  0.69010601  0.69530822    -0.05300
C1777       C  0.89228397  0.72368780  0.68154828     0.00600
C1778       C  0.92831754  0.75359188  0.69517145    -0.07900
C1779       C  0.96578614  0.78884115  0.68138965     0.62500
H1780       H  0.95480159  0.77520833  0.73321232     0.13200
H1781       H  0.83306253  0.66711025  0.68465517     0.13200
C1782       C  0.82417670  0.65288875  0.73714806     0.62800
F1783       F  0.00053742  0.80738920  0.69732892    -0.22400
F1784       F  0.95659094  0.81917332  0.67398190    -0.19700
F1785       F  0.97620914  0.77371058  0.65969987    -0.19400
F1786       F  0.80665569  0.66931058  0.75387981    -0.19500
F1787       F  0.83807641  0.63062411  0.75132950    -0.19800
F1788       F  0.79325127  0.62558368  0.72043473    -0.22500
C1789       C  0.10419197  0.14938733  0.56971774    -0.05300
C1790       C  0.10928398  0.12085518  0.58459586     0.00600
C1791       C  0.07713451  0.09335666  0.60159073    -0.07900
C1792       C  0.03956588  0.09400139  0.60222365    -0.05300
C1793       C  0.03294966  0.12028096  0.58589301     0.00600
C1794       C  0.06618881  0.14952924  0.56987628    -0.07900
C1795       C  0.06200174  0.18068611  0.55296652     0.62500
H1796       H  0.12961177  0.17022263  0.55704954     0.13200
H1797       H  0.01410615  0.07214620  0.61449176     0.13200
C1798       C  0.08178221  0.06209642  0.61808316     0.62800
F1799       F  0.10004161  0.20989099  0.54240056    -0.22400
F1800       F  0.04689337  0.20179366  0.56754873    -0.19700
F1801       F  0.03513188  0.16021528  0.53265635    -0.19400
F1802       F  0.11864457  0.08204777  0.63198161    -0.19500
F1803       F  0.08226573  0.03224685  0.60216186    -0.19800
F1804       F  0.04911406  0.04206675  0.63561017    -0.22500
C1805       C  0.07793121  0.92671279  0.56053634    -0.05300
C1806       C  0.09704974  0.94310254  0.58464327     0.00600
C1807       C  0.08287726  0.91696588  0.60687373    -0.07900
C1808       C  0.04656190  0.87771860  0.60473682    -0.05300
C1809       C  0.02538495  0.86304938  0.58110587     0.00600
C1810       C  0.04265760  0.88674032  0.55822291    -0.07900
C1811       C  0.02328691  0.87095498  0.53164700     0.62500
H1812       H  0.09000179  0.94606244  0.54343343     0.13200
H1813       H  0.03350021  0.85852794  0.62185752     0.13200
C1814       C  0.10570149  0.92957273  0.63268731     0.62800
F1815       F  0.98264368  0.86349050  0.53146249    -0.22400
F1816       F  0.02340519  0.83451949  0.52582347    -0.19700
F1817       F  0.04529053  0.89938762  0.51218817    -0.19400
F1818       F  0.10049358  0.96042135  0.64428267    -0.19500
F1819       F  0.14784113  0.94384892  0.62878161    -0.19800
F1820       F  0.09074230  0.89629747  0.64972310    -0.22500
C1821       C  0.02726998  0.92102803  0.81283933    -0.05300
C1822       C  0.02704412  0.88460318  0.82000787     0.00600
C1823       C  0.06497347  0.88504949  0.82461943    -0.07900
C1824       C  0.10258766  0.92343405  0.82353422    -0.05300
C1825       C  0.10241789  0.96045133  0.81836275     0.00600
C1826       C  0.06461643  0.95935893  0.81203182    -0.07900
C1827       C  0.06369759  0.99869682  0.80506809     0.62500
H1828       H  0.99766565  0.91948810  0.80907920     0.13200
H1829       H  0.13202836  0.92515025  0.82808107     0.13200
C1830       C  0.06526167  0.84531222  0.83123085     0.62800
F1831       F  0.02488285  0.98981175  0.79597129    -0.22400
F1832       F  0.09292660  0.02022816  0.78584660    -0.19700
F1833       F  0.07276355  0.02384255  0.82674950    -0.19400
F1834       F  0.04403481  0.81544610  0.81235946    -0.19500
F1835       F  0.04588180  0.83038937  0.85496340    -0.19800
F1836       F  0.10555357  0.85186347  0.83263294    -0.22500
C1837       C  0.27273320  0.10067472  0.94043476    -0.05300
C1838       C  0.23560798  0.07461782  0.92695286     0.00600
C1839       C  0.20123400  0.04247832  0.94073746    -0.07900
C1840       C  0.20340503  0.04145730  0.96797472    -0.05300
C1841       C  0.23925336  0.07000774  0.98170770     0.00600
C1842       C  0.27531133  0.09873010  0.96760612    -0.07900
C1843       C  0.31572549  0.12844925  0.98117328     0.62500
H1844       H  0.29927569  0.12419829  0.92964810     0.13200
H1845       H  0.17629539  0.01899244  0.97888620     0.13200
C1846       C  0.16213827  0.00942977  0.92714121     0.62800
F1847       F  0.34656630  0.15465252  0.96392326    -0.22400
F1848       F  0.31971961  0.08001253  0.49552705    -0.19700
F1849       F  0.31953992  0.14038930  0.50065982    -0.19400
F1850       F  0.17282534  0.99575434  0.90487446    -0.19500
F1851       F  0.13682561  0.02564475  0.92072871    -0.19800
F1852       F  0.13937381  0.97504273  0.94289642    -0.22500
C1853       C  0.23195698  0.15570596  0.71998477    -0.05300
C1854       C  0.25026167  0.13536065  0.73273740     0.00600
C1855       C  0.27073299  0.11833070  0.71797785    -0.07900
C1856       C  0.26709116  0.11719479  0.69088500    -0.05300
C1857       C  0.24522431  0.13382419  0.67830413     0.00600
C1858       C  0.22929815  0.15541869  0.69271849    -0.07900
C1859       C  0.20798959  0.17617959  0.67938466     0.62500
H1860       H  0.21745682  0.16955468  0.73155090     0.13200
H1861       H  0.27978924  0.10155519  0.67932454     0.13200
C1862       C  0.29603791  0.10105813  0.73054802     0.62800
F1863       F  0.19353125  0.19442024  0.69703105    -0.22400
F1864       F  0.17426821  0.14704753  0.66515055    -0.19700
F1865       F  0.23613093  0.20696278  0.66291407    -0.19400
F1866       F  0.26962781  0.06230961  0.74115091    -0.19500
F1867       F  0.32126064  0.12792249  0.74979967    -0.19800
F1868       F  0.32173432  0.09664356  0.71266528    -0.22500
C1869       C  0.08042405  0.11495629  0.80407704    -0.05300
C1870       C  0.10119594  0.12480691  0.82809035     0.00600
C1871       C  0.08513340  0.13716544  0.84925409    -0.07900
C1872       C  0.04690902  0.13593644  0.84609555    -0.05300
C1873       C  0.02471982  0.12318422  0.82269726     0.00600
C1874       C  0.04217713  0.11389952  0.80093669    -0.07900
C1875       C  0.01988462  0.10121100  0.77496618     0.62500
H1876       H  0.09361578  0.10640463  0.78796032     0.13200
H1877       H  0.03300775  0.14332907  0.86238453     0.13200
C1878       C  0.10769947  0.15146961  0.87508973     0.62800
F1879       F  0.04172845  0.09167527  0.75685552    -0.22400
F1880       F  0.01574699  0.13364881  0.76518654    -0.19700
F1881       F  0.98068840  0.06640031  0.77800909    -0.19400
F1882       F  0.14924589  0.18100879  0.87097089    -0.19500
F1883       F  0.10510412  0.11779555  0.88822912    -0.19800
F1884       F  0.09036808  0.16936451  0.89081772    -0.22500
C1885       C  0.06160477  0.72051094  0.86519901    -0.05300
C1886       C  0.07479422  0.74026568  0.88975180     0.00600
C1887       C  0.04547316  0.74538245  0.90486330    -0.07900
C1888       C  0.00527162  0.73215937  0.89450393    -0.05300
C1889       C  0.99325179  0.71527825  0.86919459     0.00600
C1890       C  0.02182319  0.70855675  0.85453462    -0.07900
C1891       C  0.01103611  0.69049446  0.82735347     0.62500
H1892       H  0.08344256  0.71555649  0.85383673     0.13200
H1893       H  0.98342464  0.73755664  0.90562962     0.13200
C1894       C  0.05635237  0.76496597  0.93169724     0.62800
F1895       F  0.04262856  0.68547410  0.81647694    -0.22400
F1896       F  0.00452778  0.71671093  0.81149277    -0.19700
F1897       F  0.97507663  0.65183829  0.82818168    -0.19400
F1898       F  0.08749773  0.80625884  0.92971429    -0.19500
F1899       F  0.07000896  0.74373069  0.94712470    -0.19800
F1900       F  0.02226620  0.76382695  0.94390116    -0.22500
C1901       C  0.24918251  0.90944625  0.61002010    -0.05300
C1902       C  0.23330725  0.89866556  0.63559461     0.00600
C1903       C  0.23343279  0.93001347  0.65137154    -0.07900
C1904       C  0.24779181  0.97015908  0.64091216    -0.05300
C1905       C  0.25974350  0.98006046  0.61456398     0.00600
C1906       C  0.26051823  0.94886400  0.59883683    -0.07900
C1907       C  0.27123416  0.95636329  0.57019540     0.62500
H1908       H  0.25215126  0.88649917  0.59865053     0.13200
H1909       H  0.24705193  0.99375586  0.65303384     0.13200
C1910       C  0.21739757  0.92060866  0.67910729     0.62800
F1911       F  0.26986315  0.92211311  0.55826874    -0.22400
F1912       F  0.31111567  0.99008478  0.56713094    -0.19700
F1913       F  0.24292210  0.96447440  0.55782687    -0.19400
F1914       F  0.24114416  0.90849004  0.69331978    -0.19500
F1915       F  0.17615572  0.88873009  0.67915886    -0.19800
F1916       F  0.21922327  0.95492078  0.69123777    -0.22500
C1917       C  0.19986903  0.77637756  0.77275401    -0.05300
C1918       C  0.23853455  0.79376867  0.75991152     0.00600
C1919       C  0.27590405  0.81376500  0.77445107    -0.07900
C1920       C  0.27320368  0.81261628  0.80183252    -0.05300
C1921       C  0.23431882  0.79234962  0.81474535     0.00600
C1922       C  0.19701572  0.77603179  0.79997547    -0.07900
C1923       C  0.15421586  0.75820306  0.81268546     0.62500
H1924       H  0.17161599  0.76160300  0.76121099     0.13200
H1925       H  0.30145852  0.82589330  0.81332877     0.13200
C1926       C  0.31815483  0.83486180  0.76098792     0.62800
F1927       F  0.12415293  0.75395027  0.79506335    -0.22400
F1928       F  0.15548644  0.78447788  0.83230614    -0.19700
F1929       F  0.14206717  0.71928113  0.82282203    -0.19400
F1930       F  0.32139710  0.86664839  0.74540797    -0.19500
F1931       F  0.32232759  0.80628180  0.74577732    -0.19800
F1932       F  0.35076482  0.85184025  0.77857307    -0.22500
C1933       C  0.17459591  0.77127823  0.52425857    -0.05300
C1934       C  0.18404303  0.74377945  0.51080121     0.00600
C1935       C  0.18526247  0.71148253  0.52491614    -0.07900
C1936       C  0.18197742  0.71112879  0.55213971    -0.05300
C1937       C  0.17600629  0.74066849  0.56570745     0.00600
C1938       C  0.17022239  0.77005906  0.55156830    -0.07900
C1939       C  0.16140390  0.80108579  0.56535198     0.62500
H1940       H  0.17250737  0.79504779  0.51333558     0.13200
H1941       H  0.18577710  0.68849261  0.56324929     0.13200
C1942       C  0.19030582  0.67743450  0.51171169     0.62800
F1943       F  0.15949567  0.82880034  0.54825700    -0.22400
F1944       F  0.19264556  0.82371821  0.58302765    -0.19700
F1945       F  0.12354040  0.78002212  0.57831786    -0.19400
F1946       F  0.23140151  0.69308683  0.50396178    -0.19500
F1947       F  0.16526760  0.66611866  0.99004916    -0.19800
F1948       F  0.17985077  0.64423510  0.52824685    -0.22500
C1949       C  0.17012040  0.58313562  0.67998573    -0.05300
C1950       C  0.18993220  0.60867700  0.65840617     0.00600
C1951       C  0.19810587  0.59116328  0.63601032    -0.07900
C1952       C  0.18947180  0.54968080  0.63715330    -0.05300
C1953       C  0.17325585  0.52567449  0.65964660     0.00600
C1954       C  0.16071137  0.54152215  0.68074903    -0.07900
C1955       C  0.13753072  0.51596519  0.70440359     0.62500
H1956       H  0.16197244  0.59583992  0.69657606     0.13200
H1957       H  0.19848697  0.53669629  0.62116483     0.13200
C1958       C  0.21809628  0.61634824  0.61155087     0.62800
F1959       F  0.10171516  0.51843735  0.70831855    -0.22400
F1960       F  0.16278276  0.53191734  0.72599435    -0.19700
F1961       F  0.12544318  0.47426972  0.70175761    -0.19400
F1962       F  0.25526922  0.65199800  0.61767236    -0.19500
F1963       F  0.19110296  0.62712394  0.60003358    -0.19800
F1964       F  0.22699528  0.59408889  0.59344422    -0.22500
C1965       C  0.02336212  0.22189122  0.62621582    -0.05300
C1966       C  0.99142381  0.23196896  0.62280242     0.00600
C1967       C  0.99803278  0.27015228  0.63327938    -0.07900
C1968       C  0.03722713  0.29786569  0.64503697    -0.05300
C1969       C  0.07010683  0.28865795  0.64717886     0.00600
C1970       C  0.06226822  0.24918876  0.63810613    -0.07900
C1971       C  0.09543363  0.23651185  0.63974330     0.62500
H1972       H  0.01788053  0.19222432  0.61877673     0.13200
H1973       H  0.04295465  0.32784643  0.65207284     0.13200
C1974       C  0.96451133  0.28213706  0.63117560     0.62800
F1975       F  0.08219829  0.19766645  0.62883041    -0.22400
F1976       F  0.10500513  0.23491477  0.66546208    -0.19700
F1977       F  0.13110849  0.26511493  0.62667349    -0.19400
F1978       F  0.92920878  0.25365768  0.64463593    -0.19500
F1979       F  0.95437661  0.28225462  0.60538584    -0.19800
F1980       F  0.97751167  0.32135084  0.64142106    -0.22500
C1981       C  0.26974661  0.31079776  0.87156746    -0.05300
C1982       C  0.24325718  0.29939497  0.89366983     0.00600
C1983       C  0.23077818  0.25984203  0.90495460    -0.07900
C1984       C  0.24344763  0.23298332  0.89306723    -0.05300
C1985       C  0.26790840  0.24384948  0.87016856     0.00600
C1986       C  0.28163617  0.28381784  0.85950866    -0.07900
C1987       C  0.30861364  0.29780543  0.83515914     0.62500
H1988       H  0.28025500  0.34102803  0.86300478     0.13200
H1989       H  0.23204486  0.20196207  0.90074594     0.13200
C1990       C  0.20415140  0.24580345  0.92934745     0.62800
F1991       F  0.32300503  0.33934294  0.82957087    -0.22400
F1992       F  0.28583054  0.27430993  0.81410473    -0.19700
F1993       F  0.34296885  0.29277693  0.83851034    -0.19400
F1994       F  0.16484529  0.23981504  0.92408394    -0.19500
F1995       F  0.22278505  0.27572468  0.94854794    -0.19800
F1996       F  0.19937027  0.20871071  0.93873973    -0.22500
C1997       C  0.20080999  0.36433235  0.52977545    -0.05300
C1998       C  0.23016431  0.39927685  0.51571530     0.00600
C1999       C  0.26396313  0.43285290  0.52893489    -0.07900
C2000       C  0.26435033  0.43224358  0.55620385    -0.05300
C2001       C  0.23233833  0.39932729  0.57021231     0.00600
C2002       C  0.20133333  0.36387278  0.55703263    -0.07900
C2003       C  0.16920287  0.32589390  0.57184988     0.62500
H2004       H  0.17587666  0.33843898  0.51935009     0.13200
H2005       H  0.28829050  0.45870505  0.56681232     0.13200
C2006       C  0.29919169  0.46940300  0.51453654     0.62800
F2007       F  0.14433299  0.29331317  0.55535878    -0.22400
F2008       F  0.14348999  0.33560446  0.58624428    -0.19700
F2009       F  0.18957961  0.31260537  0.58833811    -0.19400
F2010       F  0.28545514  0.49539026  0.50522906    -0.19500
F2011       F  0.31290591  0.45502073  0.49401509    -0.19800
F2012       F  0.33306560  0.49272566  0.53057817    -0.22500
C2013       C  0.17396961  0.42383893  0.80702895    -0.05300
C2014       C  0.18927566  0.40137160  0.82040488     0.00600
C2015       C  0.20055028  0.37542243  0.80638787    -0.07900
C2016       C  0.19949860  0.37569861  0.77913191    -0.05300
C2017       C  0.18804535  0.40127725  0.76571085     0.00600
C2018       C  0.17346738  0.42455147  0.77973239    -0.07900
C2019       C  0.15759661  0.45005568  0.76599999     0.62500
H2020       H  0.16459646  0.44275329  0.81812541     0.13200
H2021       H  0.21023142  0.35784200  0.76807847     0.13200
C2022       C  0.21532513  0.34881542  0.81989286     0.62800
F2023       F  0.13881201  0.46470964  0.78312130    -0.22400
F2024       F  0.12826510  0.42566067  0.74759163    -0.19700
F2025       F  0.19049372  0.48403358  0.75401594    -0.19400
F2026       F  0.19044882  0.32919337  0.84130360    -0.19500
F2027       F  0.25628679  0.37382434  0.82770735    -0.19800
F2028       F  0.21353727  0.31818062  0.80354027    -0.22500
C2029       C  0.17802982  0.59764251  0.93739677    -0.05300
C2030       C  0.18637517  0.61774413  0.91327831     0.00600
C2031       C  0.19261558  0.59879407  0.89112623    -0.07900
C2032       C  0.19301815  0.56140428  0.89434723    -0.05300
C2033       C  0.18723738  0.54236089  0.91879488     0.00600
C2034       C  0.17782542  0.55991685  0.94063699    -0.07900
C2035       C  0.16749125  0.53951529  0.96725221     0.62500
H2036       H  0.17299374  0.61265921  0.95400963     0.13200
H2037       H  0.19923885  0.54742433  0.87767321     0.13200
C2038       C  0.20063101  0.61868870  0.86442030     0.62800
F2039       F  0.15293071  0.55864162  0.98416316    -0.22400
F2040       F  0.20288983  0.54211992  0.97809150    -0.19700
F2041       F  0.13658949  0.49817381  0.96500863    -0.19400
F2042       F  0.23492036  0.65853289  0.86522739    -0.19500
F2043       F  0.16584800  0.62051004  0.85654536    -0.19800
F2044       F  0.20857441  0.59622465  0.84594491    -0.22500
C2045       C  0.42528310  0.78140393  0.89292768    -0.05300
C2046       C  0.44787836  0.79252116  0.91615377     0.00600
C2047       C  0.43146744  0.80170399  0.93853050    -0.07900
C2048       C  0.39223031  0.79883757  0.93685227    -0.05300
C2049       C  0.36869335  0.78603428  0.91391642     0.00600
C2050       C  0.38530366  0.77698358  0.89146067    -0.07900
C2051       C  0.36030300  0.76023824  0.86657448     0.62500
H2052       H  0.43833179  0.77390071  0.87625407     0.13200
H2053       H  0.37916558  0.80577884  0.95375575     0.13200
C2054       C  0.45495458  0.81417693  0.96413329     0.62800
F2055       F  0.38003036  0.74739210  0.84891969    -0.22400
F2056       F  0.35524658  0.79088535  0.85482588    -0.19700
F2057       F  0.32151840  0.72619839  0.87214141    -0.19400
F2058       F  0.49603683  0.84495940  0.95997493    -0.19500
F2059       F  0.45409955  0.77995113  0.97537799    -0.19800
F2060       F  0.43727850  0.82950303  0.98159130    -0.22500
C2061       C  0.67756859  0.93877925  0.89447715    -0.05300
C2062       C  0.68891702  0.90752857  0.89728608     0.00600
C2063       C  0.73032682  0.91810952  0.89031771    -0.07900
C2064       C  0.75707920  0.95766036  0.87919222    -0.05300
C2065       C  0.74445777  0.98730181  0.87441461     0.00600
C2066       C  0.70454115  0.97832956  0.88312385    -0.07900
C2067       C  0.69001931  0.00958868  0.87932713     0.62500
H2068       H  0.64640336  0.93139269  0.90032479     0.13200
H2069       H  0.78810876  0.96519390  0.87285932     0.13200
C2070       C  0.74598147  0.88745301  0.89330390     0.62800
F2071       F  0.65025942  0.99535482  0.88932794    -0.22400
F2072       F  0.68943827  0.01723315  0.85312565    -0.19700
F2073       F  0.71714201  0.04648055  0.89179483    -0.19400
F2074       F  0.72158581  0.85202960  0.87872033    -0.19500
F2075       F  0.74423787  0.87678820  0.91915518    -0.19800
F2076       F  0.78701831  0.90405943  0.88504122    -0.22500
C2077       C  0.43023588  0.58379267  0.91412161    -0.05300
C2078       C  0.42913065  0.62011853  0.92031159     0.00600
C2079       C  0.39068024  0.61818162  0.92559572    -0.07900
C2080       C  0.35399485  0.57920081  0.92459897    -0.05300
C2081       C  0.35470946  0.54249209  0.91836688     0.00600
C2082       C  0.39346312  0.54461552  0.91315500    -0.07900
C2083       C  0.39627152  0.50593672  0.90723068     0.62500
H2084       H  0.46033807  0.58647761  0.91005871     0.13200
H2085       H  0.32413612  0.57717145  0.92845078     0.13200
C2086       C  0.38847305  0.65731262  0.93145023     0.62800
F2087       F  0.43734013  0.51468087  0.90615698    -0.22400
F2088       F  0.37806986  0.48965496  0.88346789    -0.19700
F2089       F  0.37591806  0.47639554  0.92638412    -0.19400
F2090       F  0.40621909  0.68527167  0.91119493    -0.19500
F2091       F  0.40993887  0.67565648  0.95406522    -0.19800
F2092       F  0.34766279  0.64875559  0.93461672    -0.22500
C2093       C  0.39791102  0.62956201  0.66262385    -0.05300
C2094       C  0.43495196  0.62761104  0.66092840     0.00600
C2095       C  0.43272880  0.58838093  0.65986407    -0.07900
C2096       C  0.39318156  0.55218511  0.66187248    -0.05300
C2097       C  0.35644445  0.55438181  0.66445058     0.00600
C2098       C  0.35840549  0.59339987  0.66384811    -0.07900
C2099       C  0.31896220  0.59661393  0.66345474     0.62500
H2100       H  0.40022864  0.65989580  0.66293214     0.13200
H2101       H  0.39056319  0.52172625  0.66165179     0.13200
C2102       C  0.47174468  0.58474700  0.65726273     0.62800
F2103       F  0.32793481  0.63742031  0.66058655    -0.22400
F2104       F  0.29688296  0.58134024  0.68636281    -0.19700
F2105       F  0.29406464  0.57366378  0.64285300    -0.19400
F2106       F  0.49921887  0.60645367  0.67714822    -0.19500
F2107       F  0.49093195  0.60098460  0.63365684    -0.19800
F2108       F  0.46258621  0.54368613  0.65835620    -0.22500
C2109       C  0.66809747  0.70848241  0.62079029    -0.05300
C2110       C  0.67959689  0.73572411  0.64250743     0.00600
C2111       C  0.71892696  0.74782492  0.65416706    -0.07900
C2112       C  0.74498023  0.73315742  0.64343076    -0.05300
C2113       C  0.73377369  0.70729499  0.62121199     0.00600
C2114       C  0.69444594  0.69474990  0.60983455    -0.07900
C2115       C  0.68076867  0.66740646  0.58571035     0.62500
H2116       H  0.63839526  0.69891359  0.61155611     0.13200
H2117       H  0.77586390  0.74414793  0.65137617     0.13200
C2118       C  0.73388121  0.77661432  0.67751894     0.62800
F2119       F  0.64018602  0.65558532  0.57867495    -0.22400
F2120       F  0.68271188  0.63167390  0.59034956    -0.19700
F2121       F  0.70677195  0.68863563  0.56505376    -0.19400
F2122       F  0.70439397  0.76010123  0.69720307    -0.19500
F2123       F  0.74007055  0.81533309  0.67061315    -0.19800
F2124       F  0.77126945  0.78202760  0.68703452    -0.22500
C2125       C  0.60392033  0.79030836  0.77658254    -0.05300
C2126       C  0.57621290  0.75440574  0.76273994     0.00600
C2127       C  0.54979188  0.71698555  0.77622422    -0.07900
C2128       C  0.55091013  0.71736251  0.80354657    -0.05300
C2129       C  0.57612327  0.75424088  0.81750128     0.00600
C2130       C  0.60385246  0.79126653  0.80385334    -0.07900
C2131       C  0.63249832  0.83204920  0.81774259     0.62500
H2132       H  0.62369957  0.81856826  0.76579194     0.13200
H2133       H  0.53017105  0.68934858  0.81425218     0.13200
C2134       C  0.52041288  0.67704934  0.76183813     0.62800
F2135       F  0.66203425  0.86134144  0.80106526    -0.22400
F2136       F  0.65362513  0.82536123  0.83750700    -0.19700
F2137       F  0.60917741  0.84858017  0.82796137    -0.19400
F2138       F  0.54258334  0.66859405  0.74340098    -0.19500
F2139       F  0.48941732  0.68120297  0.74970324    -0.19800
F2140       F  0.50123291  0.64325199  0.77844674    -0.22500
C2141       C  0.60850473  0.78073879  0.55565752    -0.05300
C2142       C  0.58227710  0.79372783  0.56702099     0.00600
C2143       C  0.55995368  0.80689310  0.55107093    -0.07900
C2144       C  0.56288475  0.80416302  0.52400596    -0.05300
C2145       C  0.58731295  0.78897847  0.51267894     0.00600
C2146       C  0.61163361  0.77826781  0.52858372    -0.07900
C2147       C  0.63888855  0.76213532  0.51714454     0.62500
H2148       H  0.62543176  0.77108624  0.56829423     0.13200
H2149       H  0.54457813  0.81211571  0.51137892     0.13200
C2150       C  0.53102115  0.82100535  0.56246413     0.62800
F2151       F  0.65812572  0.75152067  0.53622080    -0.22400
F2152       F  0.66985725  0.79265172  0.50182572    -0.19700
F2153       F  0.61481963  0.72700547  0.50223159    -0.19400
F2154       F  0.55384818  0.85661553  0.57719484    -0.19500
F2155       F  0.50104139  0.78976009  0.57790609    -0.19800
F2156       F  0.51057885  0.83011262  0.54337948    -0.22500
C2157       C  0.40241903  0.76212200  0.67771051    -0.05300
C2158       C  0.43641620  0.79134720  0.66289073     0.00600
C2159       C  0.43192376  0.82035915  0.64724100    -0.07900
C2160       C  0.39269932  0.81796882  0.64646190    -0.05300
C2161       C  0.35853247  0.78741907  0.66036738     0.00600
C2162       C  0.36324707  0.75932101  0.67650411    -0.07900
C2163       C  0.32670058  0.72579751  0.69183762     0.62500
H2164       H  0.40632740  0.74021151  0.68952788     0.13200
H2165       H  0.38799336  0.83911792  0.63438804     0.13200
C2166       C  0.46796081  0.85373361  0.63152710     0.62800
F2167       F  0.29711936  0.69769284  0.67485310    -0.22400
F2168       F  0.30884918  0.74362903  0.70709417    -0.19700
F2169       F  0.33888055  0.70403546  0.70797438    -0.19400
F2170       F  0.47737641  0.83548951  0.61110991    -0.19500
F2171       F  0.50279493  0.87530783  0.64707485    -0.19800
F2172       F  0.45818638  0.88226713  0.62126851    -0.22500
C2173       C  0.93851225  0.60760935  0.51985995    -0.05300
C2174       C  0.93176074  0.57248924  0.53391102     0.00600
C2175       C  0.91042807  0.56494776  0.55822597    -0.07900
C2176       C  0.89777751  0.59328946  0.56770426    -0.05300
C2177       C  0.90445635  0.62849873  0.55345826     0.00600
C2178       C  0.92497816  0.63520958  0.52867016    -0.07900
C2179       C  0.93140589  0.67027414  0.51044395     0.62500
H2180       H  0.95336168  0.61235323  0.50100114     0.13200
H2181       H  0.88225422  0.58792810  0.58635705     0.13200
C2182       C  0.89929667  0.52594185  0.57357000     0.62800
F2183       F  0.94213081  0.66457715  0.48555614    -0.22400
F2184       F  0.96337950  0.70800455  0.51947368    -0.19700
F2185       F  0.89490627  0.67187475  0.50857418    -0.19400
F2186       F  0.87369169  0.49108682  0.55891782    -0.19500
F2187       F  0.89887584  0.50417755  0.06983301    -0.19800
F2188       F  0.93537545  0.52543980  0.57977589    -0.22500
C2189       C  0.00300441  0.37704066  0.95349963    -0.05300
C2190       C  0.01440530  0.40414928  0.97523769     0.00600
C2191       C  0.05310433  0.41541536  0.98747242    -0.07900
C2192       C  0.07959380  0.40149063  0.97654109    -0.05300
C2193       C  0.06873416  0.37628276  0.95404430     0.00600
C2194       C  0.02922942  0.36304484  0.94282901    -0.07900
C2195       C  0.01494711  0.33400914  0.91951734     0.62500
H2196       H  0.97334962  0.36747292  0.94419043     0.13200
H2197       H  0.11030998  0.41226416  0.98470327     0.13200
C2198       C  0.06891681  0.44147908  0.51148885     0.62800
F2199       F  0.97401006  0.32128579  0.91285315    -0.22400
F2200       F  0.01744757  0.29887612  0.92523788    -0.19700
F2201       F  0.04012675  0.35380465  0.89828814    -0.19400
F2202       F  0.04009211  0.42543389  0.53155909    -0.19500
F2203       F  0.07410590  0.47955098  0.50394797    -0.19800
F2204       F  0.10687313  0.44807396  0.52078313    -0.22500
C2205       C  0.95644569  0.30200277  0.78188189    -0.05300
C2206       C  0.93252916  0.32010216  0.78896043     0.00600
C2207       C  0.90018285  0.29883733  0.80780930    -0.07900
C2208       C  0.89007160  0.25861190  0.81650821    -0.05300
C2209       C  0.91226965  0.23899625  0.80824301     0.00600
C2210       C  0.94835498  0.26295060  0.79179372    -0.07900
C2211       C  0.97895563  0.24839666  0.78413159     0.62500
H2212       H  0.98078089  0.31815825  0.76749224     0.13200
H2213       H  0.86401525  0.24221506  0.82981002     0.13200
C2214       C  0.87499169  0.31686810  0.81950919     0.62800
F2215       F  0.01408881  0.27938138  0.77166416    -0.22400
F2216       F  0.96004021  0.21482116  0.76730631    -0.19700
F2217       F  0.99269953  0.23751237  0.80607966    -0.19400
F2218       F  0.83330639  0.29181324  0.81332636    -0.19500
F2219       F  0.88805874  0.35660339  0.81096186    -0.19800
F2220       F  0.87902629  0.31831578  0.84623940    -0.22500
C2221       C  0.00235132  0.58398723  0.69970966    -0.05300
C2222       C  0.01149617  0.56734517  0.72196057     0.00600
C2223       C  0.04963391  0.59354163  0.73493830    -0.07900
C2224       C  0.07711281  0.63371479  0.72478785    -0.05300
C2225       C  0.06987445  0.64890656  0.70124704     0.00600
C2226       C  0.03080226  0.62384407  0.68903544    -0.07900
C2227       C  0.01949879  0.63858019  0.66462021     0.62500
H2228       H  0.97283272  0.56483487  0.69002812     0.13200
H2229       H  0.10629306  0.65314353  0.73478397     0.13200
C2230       C  0.06197317  0.57946531  0.75931504     0.62800
F2231       F  0.97939303  0.61058573  0.65633025    -0.22400
F2232       F  0.04708194  0.64341359  0.64485101    -0.19700
F2233       F  0.02155972  0.67633940  0.66942267    -0.19400
F2234       F  0.06814065  0.54646167  0.75343426    -0.19500
F2235       F  0.03083751  0.56731928  0.77790478    -0.19800
F2236       F  0.09870878  0.61089501  0.76993861    -0.22500
C2237       C  0.87604017  0.45387250  0.85753258    -0.05300
C2238       C  0.90929307  0.45239386  0.84507856     0.00600
C2239       C  0.94218331  0.45421951  0.86033519    -0.07900
C2240       C  0.93918899  0.45513471  0.88757443    -0.05300
C2241       C  0.90531755  0.45526451  0.89982393     0.00600
C2242       C  0.87364936  0.45563415  0.88475591    -0.07900
C2243       C  0.83669811  0.45613337  0.89751201     0.62500
H2244       H  0.85126995  0.45256907  0.84570584     0.13200
H2245       H  0.96296620  0.45494526  0.89968277     0.13200
C2246       C  0.97945287  0.45345666  0.84824341     0.62800
F2247       F  0.80858100  0.45493655  0.87939878    -0.22400
F2248       F  0.85072362  0.49215320  0.91204476    -0.19700
F2249       F  0.81571500  0.42190185  0.91360047    -0.19400
F2250       F  0.00211025  0.48859975  0.83313949    -0.19500
F2251       F  0.96589020  0.41814830  0.83308208    -0.19800
F2252       F  0.00617781  0.45307687  0.86684116    -0.22500
C2253       C  0.88905288  0.37112272  0.63464571    -0.05300
C2254       C  0.91497724  0.40704372  0.64919598     0.00600
C2255       C  0.94256205  0.44463963  0.63617560    -0.07900
C2256       C  0.93974234  0.44628169  0.60913759    -0.05300
C2257       C  0.91101347  0.41155880  0.59476874     0.00600
C2258       C  0.88662575  0.37275620  0.60739304    -0.07900
C2259       C  0.85785826  0.33357734  0.59222988     0.62500
H2260       H  0.86845182  0.34250960  0.64489045     0.13200
H2261       H  0.95933690  0.47553682  0.59921506     0.13200
C2262       C  0.97425381  0.48419570  0.64998494     0.62800
F2263       F  0.84309388  0.29822572  0.60744526    -0.22400
F2264       F  0.87925521  0.32930856  0.57137796    -0.19700
F2265       F  0.82392278  0.33591766  0.58320114    -0.19400
F2266       F  0.98134826  0.47707425  0.67527542    -0.19500
F2267       F  0.96013168  0.51242050  0.65005732    -0.19800
F2268       F  0.01218710  0.50162944  0.63696104    -0.22500
C2269       C  0.67575335  0.61225466  0.78723270    -0.05300
C2270       C  0.66160590  0.56952597  0.78915844     0.00600
C2271       C  0.68740329  0.55714115  0.80253666    -0.07900
C2272       C  0.72695036  0.58756414  0.81203211    -0.05300
C2273       C  0.74137506  0.63033256  0.81016757     0.00600
C2274       C  0.71483634  0.64295261  0.79766336    -0.07900
C2275       C  0.72813687  0.68867982  0.79403701     0.62500
H2276       H  0.65647265  0.62145020  0.77661610     0.13200
H2277       H  0.74659237  0.57758218  0.82150241     0.13200
C2278       C  0.67524478  0.51204529  0.80702089     0.62800
F2279       F  0.70086018  0.69374845  0.77819076    -0.22400
F2280       F  0.76739961  0.70967750  0.78267921    -0.19700
F2281       F  0.72887943  0.70658038  0.81779164    -0.19400
F2282       F  0.69997474  0.50239722  0.79155179    -0.19500
F2283       F  0.63367473  0.48461300  0.80174699    -0.19800
F2284       F  0.68192872  0.50654257  0.83274305    -0.22500
C2285       C  0.37835046  0.37137439  0.71887572    -0.05300
C2286       C  0.40661819  0.41239823  0.72788434     0.00600
C2287       C  0.39312926  0.44219019  0.72677361    -0.07900
C2288       C  0.35344406  0.43035030  0.71593695    -0.05300
C2289       C  0.32653245  0.39016380  0.70575363     0.00600
C2290       C  0.33905090  0.35999256  0.70754723    -0.07900
C2291       C  0.31203654  0.31678770  0.69620063     0.62500
H2292       H  0.38792987  0.34818065  0.71985331     0.13200
H2293       H  0.34361018  0.45331994  0.71428659     0.13200
C2294       C  0.42094495  0.48686651  0.73572413     0.62800
F2295       F  0.32980936  0.29189532  0.69939802    -0.22400
F2296       F  0.30671792  0.31983991  0.66990025    -0.19700
F2297       F  0.27334782  0.29754411  0.70830988    -0.19400
F2298       F  0.45810854  0.50492410  0.72186054    -0.19500
F2299       F  0.42913965  0.48749110  0.76192889    -0.19800
F2300       F  0.40237441  0.51094209  0.73201384    -0.22500
C2301       C  0.72970738  0.47340223  0.73643748    -0.05300
C2302       C  0.69372882  0.43775500  0.74566697     0.00600
C2303       C  0.69559302  0.40182492  0.75246957    -0.07900
C2304       C  0.73401383  0.40322855  0.75025535    -0.05300
C2305       C  0.77047379  0.43921545  0.74189928     0.00600
C2306       C  0.76851925  0.47498627  0.73460446    -0.07900
C2307       C  0.80705372  0.51483313  0.72579657     0.62500
H2308       H  0.72725899  0.50036889  0.73116909     0.13200
H2309       H  0.73597822  0.37594786  0.75540409     0.13200
C2310       C  0.65724958  0.36183469  0.76152484     0.62800
F2311       F  0.79858662  0.54685637  0.72207005    -0.22400
F2312       F  0.82151165  0.50795500  0.70252803    -0.19700
F2313       F  0.83808227  0.52771895  0.74433216    -0.19400
F2314       F  0.62513250  0.34996349  0.74389869    -0.19500
F2315       F  0.64446335  0.36797106  0.78561508    -0.19800
F2316       F  0.66529158  0.32926553  0.76374449    -0.22500
C2317       C  0.39569218  0.30730042  0.55888076    -0.05300
C2318       C  0.40383389  0.31170890  0.53197540     0.00600
C2319       C  0.38364500  0.27538893  0.51624782    -0.07900
C2320       C  0.35569121  0.23633499  0.52779382    -0.05300
C2321       C  0.34862753  0.23180257  0.55477638     0.00600
C2322       C  0.36858467  0.26817630  0.57055309    -0.07900
C2323       C  0.36296976  0.26544728  0.59985952     0.62500
H2324       H  0.41263371  0.33463744  0.57090930     0.13200
H2325       H  0.33948014  0.20938480  0.51594551     0.13200
C2326       C  0.37018268  0.34002339  0.04076086     0.62800
F2327       F  0.38857011  0.30335782  0.61186023    -0.22400
F2328       F  0.37281202  0.23666976  0.60955253    -0.19700
F2329       F  0.32204231  0.25331322  0.60627130    -0.19400
F2330       F  0.36865982  0.35367858  0.01608155    -0.19500
F2331       F  0.40247960  0.37215899  0.05440752    -0.19800
F2332       F  0.33299429  0.32967034  0.05334388    -0.22500
C2333       C  0.71815741  0.47246223  0.02090415    -0.05300
C2334       C  0.70811486  0.48128630  0.99646335     0.00600
C2335       C  0.69713146  0.42167763  0.50728093    -0.07900
C2336       C  0.73580881  0.42361139  0.50871135    -0.05300
C2337       C  0.77211672  0.45749190  0.49870422     0.00600
C2338       C  0.75327757  0.46777118  0.02459208    -0.07900
C2339       C  0.76152595  0.45714233  0.05159419     0.62500
H2340       H  0.69646745  0.46639637  0.03678589     0.13200
H2341       H  0.73769313  0.39758378  0.51668263     0.13200
C2342       C  0.65841812  0.38334538  0.51757184     0.62800
F2343       F  0.73366252  0.45687015  0.06983634    -0.22400
F2344       F  0.80136248  0.48659193  0.05946019    -0.19700
F2345       F  0.75747293  0.41794641  0.05147168    -0.19400
F2346       F  0.63330686  0.36078089  0.49703488    -0.19500
F2347       F  0.63645549  0.39515123  0.53406639    -0.19800
F2348       F  0.66835964  0.35743793  0.53127600    -0.22500
C2349       C  0.60710451  0.59943933  0.96770713    -0.05300
C2350       C  0.56518691  0.56993768  0.97473655     0.00600
C2351       C  0.53424043  0.58138064  0.97076757    -0.07900
C2352       C  0.54566552  0.61962393  0.95816636    -0.05300
C2353       C  0.58714822  0.64804221  0.95023760     0.00600
C2354       C  0.61859769  0.63834105  0.95593743    -0.07900
C2355       C  0.66383392  0.66843486  0.94895674     0.62500
H2356       H  0.63113023  0.59161950  0.97106172     0.13200
H2357       H  0.52190874  0.62764611  0.95424661     0.13200
C2358       C  0.48753788  0.54733858  0.47718964     0.62800
F2359       F  0.68967544  0.65271327  0.95516372    -0.22400
F2360       F  0.67755471  0.70538851  0.96242370    -0.19700
F2361       F  0.66734142  0.67639746  0.92258473    -0.19400
F2362       F  0.48597608  0.53796632  0.50327778    -0.19500
F2363       F  0.46939568  0.51094413  0.46278149    -0.19800
F2364       F  0.46385242  0.56640117  0.47367337    -0.22500
C2365       C  0.61023138  0.47208622  0.63774267    -0.05300
C2366       C  0.57330437  0.46572609  0.64987281     0.00600
C2367       C  0.53979576  0.46182938  0.63458228    -0.07900
C2368       C  0.54275540  0.46013488  0.60742268    -0.05300
C2369       C  0.57822157  0.46286831  0.59544182     0.00600
C2370       C  0.61323389  0.47069996  0.61052858    -0.07900
C2371       C  0.65294229  0.47650190  0.59778814     0.62500
H2372       H  0.63582717  0.47580008  0.64978765     0.13200
H2373       H  0.51661171  0.45485679  0.59535451     0.13200
C2374       C  0.50141325  0.45995807  0.64690025     0.62800
F2375       F  0.68387811  0.48502590  0.61581962    -0.22400
F2376       F  0.66799741  0.50945850  0.58054887    -0.19700
F2377       F  0.64463023  0.44068706  0.58445556    -0.19400
F2378       F  0.51371659  0.49321512  0.66378363    -0.19500
F2379       F  0.47859537  0.42310188  0.66041234    -0.19800
F2380       F  0.47546891  0.46215548  0.62846307    -0.22500
C2381       C  0.51953356  0.38290096  0.88829967    -0.05300
C2382       C  0.51806586  0.41502769  0.90189362     0.00600
C2383       C  0.51413932  0.44570021  0.88799269    -0.07900
C2384       C  0.51565334  0.44524790  0.86062221    -0.05300
C2385       C  0.52076799  0.41506294  0.84695573     0.00600
C2386       C  0.51999025  0.38171389  0.86100135    -0.07900
C2387       C  0.51954311  0.34482655  0.84757994     0.62500
H2388       H  0.52188370  0.35934160  0.89934839     0.13200
H2389       H  0.51516986  0.46994075  0.84975819     0.13200
C2390       C  0.51051738  0.47984311  0.90205594     0.62800
F2391       F  0.50805467  0.31189879  0.86453202    -0.22400
F2392       F  0.55888469  0.35633192  0.83794756    -0.19700
F2393       F  0.49096689  0.33066717  0.82747746    -0.19400
F2394       F  0.54522141  0.50259303  0.91753541    -0.19500
F2395       F  0.47493434  0.46220060  0.91741967    -0.19800
F2396       F  0.50774360  0.50702059  0.88492566    -0.22500
C2397       C  0.33050374  0.04028003  0.78614143    -0.05300
C2398       C  0.34318800  0.06949492  0.80691247     0.00600
C2399       C  0.38373510  0.08394082  0.81734469    -0.07900
C2400       C  0.41048669  0.07120861  0.80549573    -0.05300
C2401       C  0.39805701  0.04364363  0.78412305     0.00600
C2402       C  0.35699393  0.02720241  0.77473579    -0.07900
C2403       C  0.34148078  0.99598091  0.75254679     0.62500
H2404       H  0.29955403  0.02815644  0.77811937     0.13200
H2405       H  0.44250668  0.08476494  0.81197847     0.13200
C2406       C  0.39896480  0.11250696  0.84081132     0.62800
F2407       F  0.29946962  0.98063468  0.74753228    -0.22400
F2408       F  0.34684519  0.96268807  0.75881966    -0.19700
F2409       F  0.36384264  0.01458860  0.73017202    -0.19400
F2410       F  0.37068510  0.09463477  0.86103045    -0.19500
F2411       F  0.40307239  0.15065791  0.83465282    -0.19800
F2412       F  0.43743733  0.11940170  0.84928145    -0.22500
C2413       C  0.70328050  0.21860435  0.72256485    -0.05300
C2414       C  0.68954044  0.19467506  0.74519807     0.00600
C2415       C  0.71528125  0.20710794  0.76744045    -0.07900
C2416       C  0.75264611  0.24559968  0.76697623    -0.05300
C2417       C  0.76552066  0.27106035  0.74483589     0.00600
C2418       C  0.74119414  0.25668545  0.72178958    -0.07900
C2419       C  0.75396262  0.28162332  0.69670508     0.62500
H2420       H  0.68310079  0.20787016  0.70572553     0.13200
H2421       H  0.77195408  0.25624896  0.78412583     0.13200
C2422       C  0.70387952  0.17938180  0.79126305     0.62800
F2423       F  0.72327469  0.26366886  0.67790351    -0.22400
F2424       F  0.78978716  0.28351626  0.68680561    -0.19700
F2425       F  0.76120043  0.32152544  0.70129088    -0.19400
F2426       F  0.69379333  0.13948746  0.78381604    -0.19500
F2427       F  0.67011777  0.17786509  0.80403387    -0.19800
F2428       F  0.73676949  0.19387302  0.80860548    -0.22500
C2429       C  0.60772783  0.96735926  0.72786388    -0.05300
C2430       C  0.56536103  0.95783298  0.72786970     0.00600
C2431       C  0.53516101  0.91914183  0.71708310    -0.07900
C2432       C  0.54853354  0.89297756  0.70563219    -0.05300
C2433       C  0.59095914  0.90340022  0.70418867     0.00600
C2434       C  0.62093085  0.94051636  0.71662421    -0.07900
C2435       C  0.66647706  0.95209575  0.71741664     0.62500
H2436       H  0.63082805  0.99680042  0.73627185     0.13200
H2437       H  0.52541789  0.86393385  0.69687211     0.13200
C2438       C  0.48914367  0.90630751  0.71626181     0.62800
F2439       F  0.69102518  0.99005511  0.72963177    -0.22400
F2440       F  0.68152826  0.95472006  0.69243401    -0.19700
F2441       F  0.67019093  0.92194418  0.73091813    -0.19400
F2442       F  0.48419732  0.93578148  0.70282465    -0.19500
F2443       F  0.47393583  0.90286155  0.74126563    -0.19800
F2444       F  0.46524549  0.86821241  0.70406471    -0.22500
C2445       C  0.52702216  0.23096456  0.72257552    -0.05300
C2446       C  0.51994886  0.21054099  0.74660921     0.00600
C2447       C  0.50793578  0.22584160  0.76840470    -0.07900
C2448       C  0.50550384  0.26219458  0.76549719    -0.05300
C2449       C  0.51524623  0.28401312  0.74194860     0.00600
C2450       C  0.52546971  0.26792302  0.71988503    -0.07900
C2451       C  0.53698147  0.29072720  0.69406576     0.62500
H2452       H  0.53554850  0.21861311  0.70601765     0.13200
H2453       H  0.49794295  0.27526433  0.78213039     0.13200
C2454       C  0.49768151  0.20440005  0.79467337     0.62800
F2455       F  0.54760441  0.27038759  0.67552455    -0.22400
F2456       F  0.57088873  0.33043407  0.69721542    -0.19700
F2457       F  0.50335071  0.29340448  0.68479215    -0.19400
F2458       F  0.53354658  0.20839156  0.80570874    -0.19500
F2459       F  0.46837918  0.16269064  0.79168793    -0.19800
F2460       F  0.48126443  0.22152667  0.81177849    -0.22500
C2461       C  0.67784342  0.08290359  0.55283597    -0.05300
C2462       C  0.65694791  0.04768718  0.53654326     0.00600
C2463       C  0.67395739  0.02133429  0.53362427    -0.07900
C2464       C  0.71273551  0.03257924  0.54552248    -0.05300
C2465       C  0.73572957  0.06957576  0.56052908     0.00600
C2466       C  0.71631217  0.09391703  0.56531984    -0.07900
C2467       C  0.73560090  0.13130379  0.58339871     0.62500
H2468       H  0.66427999  0.10277913  0.55500911     0.13200
H2469       H  0.72587084  0.01258776  0.54229673     0.13200
C2470       C  0.65152163  0.98209082  0.51730670     0.62800
F2471       F  0.74912445  0.17976816  0.04618042    -0.22400
F2472       F  0.77295231  0.16224096  0.57310912    -0.19700
F2473       F  0.74260854  0.11941716  0.60741429    -0.19400
F2474       F  0.64972667  0.99258634  0.49181136    -0.19500
F2475       F  0.61125124  0.95739382  0.52667589    -0.19800
F2476       F  0.67151871  0.95893622  0.51784645    -0.22500
C2477       C  0.53633844  0.22630102  0.97404364    -0.05300
C2478       C  0.53274689  0.20762410  0.99824042     0.00600
C2479       C  0.50742117  0.21068190  0.51591525    -0.07900
C2480       C  0.51464608  0.25159918  0.51556543    -0.05300
C2481       C  0.53059538  0.27697737  0.49345914     0.00600
C2482       C  0.54476852  0.26771075  0.97184134    -0.07900
C2483       C  0.54758047  0.28542787  0.94483602     0.62500
H2484       H  0.53415926  0.20858844  0.95675751     0.13200
H2485       H  0.50845407  0.26421676  0.53296704     0.13200
C2486       C  0.49017355  0.18489631  0.54041303     0.62800
F2487       F  0.54168958  0.25692097  0.92548165    -0.22400
F2488       F  0.58663645  0.32013237  0.94106405    -0.19700
F2489       F  0.51688485  0.29609915  0.94197449    -0.19400
F2490       F  0.52281151  0.18876534  0.55545630    -0.19500
F2491       F  0.46392941  0.14330516  0.53432260    -0.19800
F2492       F  0.46719520  0.19811361  0.55486414    -0.22500
C2493       C  0.34311701  0.89315284  0.96999763    -0.05300
C2494       C  0.32285463  0.90670465  0.95275898     0.00600
C2495       C  0.34184083  0.94968722  0.94750432    -0.07900
C2496       C  0.38153302  0.97732217  0.95831939    -0.05300
C2497       C  0.40348206  0.96383108  0.97454314     0.00600
C2498       C  0.38256915  0.92080333  0.98134985    -0.07900
C2499       C  0.40128992  0.90371567  0.00045327     0.62500
H2500       H  0.32839128  0.85998648  0.97367637     0.13200
H2501       H  0.39614582  0.00999587  0.95335918     0.13200
C2502       C  0.32008735  0.96597774  0.93027240     0.62800
F2503       F  0.37383627  0.86230985  0.00636971    -0.22400
F2504       F  0.41083776  0.92625042  0.02336479    -0.19700
F2505       F  0.43713722  0.90639236  0.99002532    -0.19400
F2506       F  0.28087455  0.95401115  0.94038358    -0.19500
F2507       F  0.31574412  0.94973043  0.90551959    -0.19800
F2508       F  0.34214414  0.00905131  0.92856505    -0.22500
C2509       C  0.51826647  0.03441731  0.63702874    -0.05300
C2510       C  0.51561545  0.06721764  0.64876903     0.00600
C2511       C  0.51223575  0.09677030  0.63321932    -0.07900
C2512       C  0.51450166  0.09393700  0.60611265    -0.05300
C2513       C  0.51932363  0.06234211  0.59430116     0.00600
C2514       C  0.51952970  0.03094848  0.60987863    -0.07900
C2515       C  0.52283682  0.99498813  0.59815046     0.62500
H2516       H  0.52036693  0.01203210  0.64945274     0.13200
H2517       H  0.51383117  0.11726256  0.59384743     0.13200
C2518       C  0.50834417  0.13225473  0.64517549     0.62800
F2519       F  0.52498735  0.96966774  0.61702865    -0.22400
F2520       F  0.55848373  0.01014855  0.58294272    -0.19700
F2521       F  0.48796919  0.97063539  0.58313260    -0.19400
F2522       F  0.54223453  0.15595291  0.66106980    -0.19500
F2523       F  0.47190591  0.11627127  0.65965476    -0.19800
F2524       F  0.50702025  0.15828248  0.62646423    -0.22500
C2525       C  0.52246041  0.04596648  0.88848112    -0.05300
C2526       C  0.56137714  0.07347538  0.89956188     0.00600
C2527       C  0.59661218  0.09696533  0.88329389    -0.07900
C2528       C  0.59091757  0.09323176  0.85623210    -0.05300
C2529       C  0.55160923  0.06685172  0.84524739     0.00600
C2530       C  0.51681583  0.04222489  0.86149604    -0.07900
C2531       C  0.47342832  0.01408314  0.85052044     0.62500
H2532       H  0.49602823  0.02823862  0.90129866     0.13200
H2533       H  0.61693397  0.11185586  0.84332130     0.13200
C2534       C  0.63940007  0.12737107  0.89427258     0.62800
F2535       F  0.44363387  0.99511440  0.86988373    -0.22400
F2536       F  0.47346401  0.98310467  0.83547885    -0.19700
F2537       F  0.46175375  0.03725630  0.83546340    -0.19400
F2538       F  0.65424482  0.10591694  0.90842933    -0.19500
F2539       F  0.63658947  0.15609904  0.91016542    -0.19800
F2540       F  0.66829070  0.14909098  0.87488253    -0.22500
C2541       C  0.73183364  0.21291266  0.49439698    -0.05300
C2542       C  0.69444066  0.21405190  0.49437936     0.00600
C2543       C  0.71188553  0.24241204  0.02450714    -0.07900
C2544       C  0.75067377  0.27928164  0.02234835    -0.05300
C2545       C  0.77245814  0.29265038  0.99864918     0.00600
C2546       C  0.77092517  0.24974636  0.49317133    -0.07900
C2547       C  0.81090146  0.24766514  0.49428420     0.62500
H2548       H  0.73007626  0.18289961  0.49582261     0.16800
H2549       H  0.76408698  0.29870535  0.03935120     0.13200
C2550       C  0.68853957  0.23275444  0.05033716     0.62800
F2551       F  0.83522203  0.27144542  0.51483412    -0.22400
F2552       F  0.83308357  0.26271263  0.47137320    -0.19700
F2553       F  0.75057847  0.25510828  0.93001084    -0.19400
F2554       F  0.63189334  0.23898369  0.51245553    -0.19500
F2555       F  0.64919544  0.22773003  0.04661265    -0.19800
F2556       F  0.70892209  0.26455949  0.06827053    -0.22500
loop_ 
_geom_bond_atom_site_label_1 
_geom_bond_atom_site_label_2 
_geom_bond_distance 
_geom_bond_site_symmetry_2 
_ccdc_geom_bond_type 
Zn1           O6   1.980       .  S
Zn1          O10   2.019       .  S
Zn1          O17   1.999       .  S
Zn1        O1283   1.920       .  S
Zn2           O7   1.966       .  S
Zn2           O9   2.011       .  S
Zn2          O13   1.991       .  S
Zn2           O5   1.900   1_554  S
Zn3           O8   2.013       .  S
Zn3          O11   2.033       .  S
Zn3          O14   2.019       .  S
Zn3        O1283   1.910       .  S
Zn4          O12   2.156   1_544  S
Zn4          O15   2.020       .  S
Zn4          O16   2.147       .  S
Zn4           O5   1.917   1_554  S
O5        Zn1279   1.896       .  S
O5        Zn1281   1.892       .  S
O6         C1296   1.269       .  A
O7         C1297   1.269   1_554  A
O8           C20   1.276       .  A
O9           C18   1.271       .  A
O10          C20   1.276       .  A
O11          C19   1.276       .  A
O12        C1299   1.298       .  A
O13          C22   1.272       .  A
O14          C21   1.276   1_545  A
O15          C22   1.274       .  A
O16          C23   1.293       .  A
O17        C1301   1.272       .  A
C18        O1284   1.272   1_554  A
C18        C1264   1.489       .  S
C19        O1285   1.269       .  A
C19        C1200   1.471       .  S
C20        C1248   1.476       .  S
C21        O1290   1.295       .  A
C21        C1219   1.510       .  S
C22        C1235   1.464       .  S
C23        O1295   1.271   1_554  A
C23        C1184   1.511       .  S
Zn24         O29   2.172   1_545  S
Zn24         O33   2.139       .  S
Zn24         O40   2.016       .  S
Zn24         O28   1.926       .  S
Zn25         O30   2.007       .  S
Zn25         O32   2.019       .  S
Zn25         O36   2.033       .  S
Zn25         O28   1.904       .  S
Zn26         O31   1.983       .  S
Zn26         O34   2.017       .  S
Zn26         O37   2.014       .  S
Zn26         O28   1.919       .  S
Zn27         O35   2.022       .  S
Zn27         O38   1.959       .  S
Zn27         O39   2.012       .  S
Zn27         O28   1.912       .  S
O29          C41   1.297       .  A
O30          C42   1.277       .  A
O31          C43   1.272       .  A
O32          C41   1.277   1_545  A
O33          C43   1.292       .  A
O34          C42   1.276       .  A
O35          C44   1.275       .  A
O36          C45   1.277       .  A
O37          C44   1.272       .  A
O38          C45   1.266       .  A
O39          C46   1.274       .  A
O40          C46   1.274       .  A
C41        C1152   1.538       .  S
C42        C1232   1.487       .  S
C43        C1123   1.504       .  S
C44        C1168   1.477       .  S
C45        C1136   1.478       .  S
C46        C1251   1.474       .  S
Zn47         O52   2.008       .  S
Zn47         O56   2.030       .  S
Zn47         O63   1.993   1_554  S
Zn47       O1329   1.915   1_554  S
Zn48         O53   1.987       .  S
Zn48         O55   1.981       .  S
Zn48         O59   1.969       .  S
Zn48         O51   1.888       .  S
Zn49         O54   1.990       .  S
Zn49         O57   2.000       .  S
Zn49         O60   1.942       .  S
Zn49       O1329   1.906   1_554  S
Zn50         O58   2.166       .  S
Zn50         O61   2.062       .  S
Zn50         O62   2.136       .  S
Zn50         O51   1.935       .  S
O51       Zn1325   1.915       .  S
O51       Zn1327   1.917       .  S
O52        C1342   1.274   1_554  A
O53        C1343   1.267       .  A
O54          C66   1.271       .  A
O55          C64   1.271       .  A
O56          C66   1.274       .  A
O57          C65   1.273   1_554  A
O58        C1345   1.296       .  A
O59          C68   1.270       .  A
O60          C67   1.266       .  A
O61          C68   1.278       .  A
O62          C69   1.294       .  A
O63        C1347   1.276       .  A
C64        O1330   1.275       .  A
C64        C1056   1.467       .  S
C65        O1331   1.268       .  A
C65        C1203   1.494       .  S
C66        C1091   1.473       .  S
C67        O1336   1.298       .  A
C67        C1040   1.517       .  S
C68        C1104   1.476       .  S
C69        O1341   1.278       .  A
C69        C1072   1.522       .  S
Zn70         O75   2.053       .  S
Zn70         O79   2.019       .  S
Zn70         O86   2.020       .  S
Zn70         O74   1.921       .  S
Zn71         O76   2.031       .  S
Zn71         O78   1.986       .  S
Zn71         O82   2.013       .  S
Zn71         O74   1.913       .  S
Zn72         O77   2.013       .  S
Zn72         O80   1.992       .  S
Zn72         O83   1.992       .  S
Zn72         O74   1.929       .  S
Zn73         O81   2.148       .  S
Zn73         O84   2.033       .  S
Zn73         O85   2.163       .  S
Zn73         O74   1.932       .  S
O75          C87   1.278       .  A
O76          C88   1.275       .  A
O77          C89   1.275       .  A
O78          C87   1.270       .  A
O79          C89   1.274       .  A
O80          C88   1.272       .  A
O81          C90   1.292       .  A
O82          C91   1.274       .  A
O83          C90   1.271       .  A
O84          C91   1.276       .  A
O85          C92   1.298       .  A
O86          C92   1.279       .  A
C87        C1171   1.486       .  S
C88        C1024   1.483       .  S
C89        C1088   1.487       .  S
C90         C992   1.511       .  S
C91        C1107   1.487       .  S
C92        C1008   1.530       .  S
Zn93         O98   2.017       .  S
Zn93        O102   2.166       .  S
Zn93        O109   2.160       .  S
Zn93         O97   1.934       .  S
Zn94         O99   1.983       .  S
Zn94        O101   2.016       .  S
Zn94        O105   2.013       .  S
Zn94         O97   1.907       .  S
Zn95        O100   1.991       .  S
Zn95        O103   2.036       .  S
Zn95        O106   2.004       .  S
Zn95         O97   1.905       .  S
Zn96        O104   2.010       .  S
Zn96        O107   1.985       .  S
Zn96        O108   2.002       .  S
Zn96         O97   1.913       .  S
O98         C110   1.275       .  A
O99         C111   1.271       .  A
O100        C112   1.275       .  A
O101        C110   1.276       .  A
O102        C112   1.298       .  A
O103        C111   1.275       .  A
O104        C113   1.275       .  A
O105        C114   1.277       .  A
O106        C113   1.274       .  A
O107        C114   1.267       .  A
O108        C115   1.272       .  A
O109        C115   1.292       .  A
C110        C960   1.475       .  S
C111       C1027   1.478       .  S
C112        C944   1.522   1_655  S
C113        C976   1.471       .  S
C114       C1139   1.491       .  S
C115        C928   1.522       .  S
Zn116       O121   1.984       .  S
Zn116       O125   2.014       .  S
Zn116       O132   1.980       .  S
Zn116       O120   1.929       .  S
Zn117       O122   1.976       .  S
Zn117       O124   2.025       .  S
Zn117       O128   1.995       .  S
Zn117      O1398   1.911   1_554  S
Zn118       O123   2.019       .  S
Zn118       O126   2.027       .  S
Zn118       O129   1.993       .  S
Zn118       O120   1.908       .  S
Zn119       O127   2.161   1_554  S
Zn119       O130   2.012       .  S
Zn119       O131   2.153       .  S
Zn119      O1398   1.922   1_554  S
O120      Zn1395   1.917       .  S
O120      Zn1397   1.930       .  S
O121       C1411   1.269       .  A
O122       C1412   1.271   1_554  A
O123        C135   1.275       .  A
O124        C133   1.272       .  A
O125        C135   1.274       .  A
O126        C134   1.274       .  A
O127       C1414   1.298       .  A
O128        C137   1.272       .  A
O129        C136   1.276       .  A
O130        C137   1.273       .  A
O131        C138   1.292       .  A
O132       C1416   1.271       .  A
C133       O1399   1.272   1_554  A
C133       C1059   1.491       .  S
C134       O1400   1.270       .  A
C134       C1267   1.470       .  S
C135        C963   1.481       .  S
C136       O1405   1.299       .  A
C136        C912   1.529   1_655  S
C137        C979   1.468       .  S
C138       O1410   1.272   1_554  A
C138        C896   1.518       .  S
Zn139       O144   2.036       .  S
Zn139       O148   2.057       .  S
Zn139       O155   2.003       .  S
Zn139       O143   1.897       .  S
Zn140       O145   1.976       .  S
Zn140       O147   1.992       .  S
Zn140       O151   1.983       .  S
Zn140       O143   1.897       .  S
Zn141       O146   1.980       .  S
Zn141       O149   2.017       .  S
Zn141       O152   1.991       .  S
Zn141       O143   1.900       .  S
Zn142       O150   2.026       .  S
Zn142       O153   2.162       .  S
Zn142       O154   2.173       .  S
Zn142       O143   1.919       .  S
O144        C156   1.278       .  A
O145        C157   1.267       .  A
O146        C158   1.272       .  A
O147        C156   1.273       .  A
O148        C158   1.279       .  A
O149        C157   1.273       .  A
O150        C159   1.274       .  A
O151        C160   1.270       .  A
O152        C159   1.275       .  A
O153        C160   1.294       .  A
O154        C161   1.299       .  A
O155        C161   1.278       .  A
C156        C864   1.473       .  S
C157        C880   1.462       .  S
C158        C816   1.490       .  S
C159        C848   1.493       .  S
C160       C1155   1.508       .  S
C161        C832   1.520       .  S
Zn162       O167   1.985       .  S
Zn162       O171   2.012       .  S
Zn162       O178   1.966       .  S
Zn162       O166   1.911       .  S
Zn163       O168   2.148       .  S
Zn163       O170   2.029       .  S
Zn163       O174   2.156       .  S
Zn163       O166   1.928       .  S
Zn164       O169   1.987       .  S
Zn164       O172   1.963       .  S
Zn164       O175   1.997       .  S
Zn164       O166   1.906       .  S
Zn165       O173   2.012       .  S
Zn165       O176   2.002       .  S
Zn165       O177   2.022       .  S
Zn165       O166   1.907       .  S
O167        C179   1.272       .  A
O168        C180   1.292       .  A
O169        C181   1.270       .  A
O170        C179   1.275       .  A
O171        C181   1.272       .  A
O172        C180   1.269       .  A
O173        C182   1.273       .  A
O174        C183   1.298       .  A
O175        C182   1.272       .  A
O176        C183   1.276       .  A
O177        C184   1.275       .  A
O178        C184   1.267       .  A
C179       C2145   1.473       .  S
C180       C1075   1.507       .  S
C181        C800   1.462       .  S
C182        C851   1.463       .  S
C183        C784   1.520       .  S
C184        C768   1.469       .  S
Zn185       O190   2.137       .  S
Zn185       O194   2.029       .  S
Zn185       O201   2.169       .  S
Zn185       O189   1.923       .  S
Zn186       O191   2.004       .  S
Zn186       O193   1.980       .  S
Zn186       O197   2.000       .  S
Zn186       O189   1.914       .  S
Zn187       O192   1.990       .  S
Zn187       O195   2.016       .  S
Zn187       O198   1.967       .  S
Zn187       O189   1.906       .  S
Zn188       O196   2.035       .  S
Zn188       O199   2.019       .  S
Zn188       O200   2.015       .  S
Zn188       O189   1.899       .  S
O190        C202   1.291       .  A
O191        C203   1.272       .  A
O192        C204   1.271       .  A
O193        C202   1.271       .  A
O194        C204   1.276       .  A
O195        C203   1.271       .  A
O196        C205   1.277       .  A
O197        C206   1.273       .  A
O198        C205   1.269       .  A
O199        C206   1.277       .  A
O200        C207   1.278       .  A
O201        C207   1.298       .  A
C202        C915   1.500       .  S
C203        C755   1.497       .  S
C204       C1998   1.476       .  S
C205        C803   1.475       .  S
C206        C736   1.480       .  S
C207        C704   1.528       .  S
Zn208       O213   1.986       .  S
Zn208       O217   2.032       .  S
Zn208       O224   2.002       .  S
Zn208       O212   1.917       .  S
Zn209       O214   2.006       .  S
Zn209       O216   2.024       .  S
Zn209       O220   2.009       .  S
Zn209       O212   1.910       .  S
Zn210       O215   1.997       .  S
Zn210       O218   2.012       .  S
Zn210       O221   1.983       .  S
Zn210       O212   1.917       .  S
Zn211       O219   2.147       .  S
Zn211       O222   2.166       .  S
Zn211       O223   2.022       .  S
Zn211       O212   1.936       .  S
O213        C225   1.270       .  A
O214        C226   1.273       .  A
O215        C227   1.271       .  A
O216        C225   1.275       .  A
O217        C227   1.275       .  A
O218        C226   1.276       .  A
O219        C228   1.291       .  A
O220        C229   1.276       .  A
O221        C228   1.270       .  A
O222        C229   1.298       .  A
O223        C230   1.275       .  A
O224        C230   1.274       .  A
C225        C675   1.467       .  S
C226        C723   1.474       .  S
C227        C819   1.479       .  S
C228       C1011   1.509       .  S
C229        C691   1.527       .  S
C230        C739   1.468       .  S
Zn231       O236   1.934       .  S
Zn231       O240   2.001       .  S
Zn231       O247   2.015       .  S
Zn231       O235   1.911       .  S
Zn232       O237   2.131       .  S
Zn232       O239   2.189       .  S
Zn232       O243   2.081       .  S
Zn232       O235   1.937       .  S
Zn233       O238   2.049       .  S
Zn233       O241   2.016       .  S
Zn233       O244   2.023       .  S
Zn233       O235   1.917       .  S
Zn234       O242   1.970       .  S
Zn234       O245   1.968       .  S
Zn234       O246   1.991       .  S
Zn234       O235   1.883       .  S
O236        C248   1.265       .  A
O237        C249   1.294       .  A
O238        C250   1.277       .  A
O239        C248   1.298       .  A
O240        C250   1.273       .  A
O241        C249   1.278       .  A
O242        C251   1.272       .  A
O243        C252   1.281       .  A
O244        C251   1.274       .  A
O245        C252   1.270       .  A
O246        C253   1.268       .  A
O247        C253   1.275       .  A
C248        C947   1.520       .  S
C249        C624   1.523       .  S
C250        C640   1.475       .  S
C251        C883   1.491       .  S
C252        C659   1.482       .  S
C253        C672   1.477       .  S
Zn254       O259   2.049       .  S
Zn254       O263   1.995       .  S
Zn254       O270   2.055       .  S
Zn254       O258   1.921       .  S
Zn255       O260   1.954       .  S
Zn255       O262   1.995       .  S
Zn255       O266   1.980       .  S
Zn255       O258   1.910       .  S
Zn256       O261   2.174       .  S
Zn256       O264   2.174       .  S
Zn256       O267   2.051       .  S
Zn256       O258   1.940       .  S
Zn257       O265   2.009       .  S
Zn257       O268   2.013       .  S
Zn257       O269   1.975       .  S
Zn257       O258   1.912       .  S
O259        C271   1.278       .  A
O260        C272   1.268       .  A
O261        C273   1.300       .  A
O262        C271   1.271       .  A
O263        C273   1.275       .  A
O264        C272   1.294       .  A
O265        C274   1.272       .  A
O266        C275   1.268       .  A
O267        C274   1.278       .  A
O268        C275   1.275       .  A
O269        C276   1.272       .  A
O270        C276   1.278       .  A
C271        C643   1.481       .  S
C272       C1216   1.521       .  S
C273        C608   1.516       .  S
C274       C1934   1.495       .  S
C275        C771   1.480       .  S
C276        C752   1.491       .  S
Zn277       O282   1.984       .  S
Zn277       O286   1.990       .  S
Zn277       O293   1.993       .  S
Zn277       O281   1.912       .  S
Zn278       O283   2.163       .  S
Zn278       O285   2.045       .  S
Zn278       O289   2.152       .  S
Zn278       O281   1.942       .  S
Zn279       O284   2.042       .  S
Zn279       O287   2.000       .  S
Zn279       O290   2.029       .  S
Zn279       O281   1.916       .  S
Zn280       O288   2.027       .  S
Zn280       O291   1.991       .  S
Zn280       O292   1.993       .  S
Zn280       O281   1.925       .  S
O282        C294   1.267       .  A
O283        C295   1.298       .  A
O284        C296   1.276   1_545  A
O285        C294   1.277       .  A
O286        C296   1.271   1_545  A
O287        C295   1.276       .  A
O288        C297   1.276       .  A
O289        C298   1.292       .  A
O290        C297   1.275       .  A
O291        C298   1.271       .  A
O292        C299   1.272       .  A
O293        C299   1.269       .  A
C294        C560   1.498       .  S
C295       C1120   1.525       .  S
C296        C547   1.471       .  S
C297        C576   1.489       .  S
C298        C707   1.511       .  S
C299        C592   1.469       .  S
Zn300       O305   2.036       .  S
Zn300       O309   2.077       .  S
Zn300       O316   2.053       .  S
Zn300       O304   1.930       .  S
Zn301       O306   2.195       .  S
Zn301       O308   2.147       .  S
Zn301       O312   2.073       .  S
Zn301       O304   1.951       .  S
Zn302       O307   1.990       .  S
Zn302       O310   1.917       .  S
Zn302       O313   2.010       .  S
Zn302       O304   1.906       .  S
Zn303       O311   2.004       .  S
Zn303       O314   1.985       .  S
Zn303       O315   1.974       .  S
Zn303       O304   1.911       .  S
O305        C317   1.282       .  A
O306        C318   1.297       .  A
O307        C319   1.269       .  A
O308        C317   1.297       .  A
O309        C319   1.279       .  A
O310        C318   1.264       .  A
O311        C320   1.271   1_545  A
O312        C321   1.279       .  A
O313        C320   1.272   1_545  A
O314        C321   1.271       .  A
O315        C322   1.271       .  A
O316        C322   1.280       .  A
C317       C1043   1.533       .  S
C318        C627   1.518   1_545  S
C319        C579   1.487       .  S
C320        C528   1.471       .  S
C321       C1841   1.489   1_554  S
C322        C512   1.476       .  S
Zn323       O328   2.176       .  S
Zn323       O332   2.197       .  S
Zn323       O339   2.092       .  S
Zn323       O327   1.953       .  S
Zn324       O329   2.041       .  S
Zn324       O331   2.011       .  S
Zn324       O335   2.010       .  S
Zn324       O327   1.930       .  S
Zn325       O330   1.930       .  S
Zn325       O333   1.980       .  S
Zn325       O336   2.009       .  S
Zn325       O327   1.913       .  S
Zn326       O334   2.013       .  S
Zn326       O337   1.978       .  S
Zn326       O338   1.957       .  S
Zn326       O327   1.901       .  S
O328        C340   1.298       .  A
O329        C341   1.277       .  A
O330        C342   1.264       .  A
O331        C340   1.275       .  A
O332        C342   1.301       .  A
O333        C341   1.268       .  A
O334        C343   1.271       .  A
O335        C344   1.273       .  A
O336        C343   1.270       .  A
O337        C344   1.270       .  A
O338        C345   1.271       .  A
O339        C345   1.281       .  A
C340        C995   1.514       .  S
C341        C480   1.482       .  S
C342        C611   1.509       .  S
C343        C544   1.481   1_655  S
C344        C467   1.461       .  S
C345        C496   1.489       .  S
Zn346       O351   1.996       .  S
Zn346       O355   1.967       .  S
Zn346       O362   2.000       .  S
Zn346       O350   1.913       .  S
Zn347       O352   2.004       .  S
Zn347       O354   2.028       .  S
Zn347       O358   1.986       .  S
Zn347       O350   1.909       .  S
Zn348       O353   2.151       .  S
Zn348       O356   2.042       .  S
Zn348       O359   2.176       .  S
Zn348       O350   1.926       .  S
Zn349       O357   2.010       .  S
Zn349       O360   2.034       .  S
Zn349       O361   2.024       .  S
Zn349       O350   1.898       .  S
O351        C363   1.272       .  A
O352        C364   1.273       .  A
O353        C365   1.292       .  A
O354        C363   1.274       .  A
O355        C365   1.269       .  A
O356        C364   1.278       .  A
O357        C366   1.275       .  A
O358        C367   1.272       .  A
O359        C366   1.299       .  A
O360        C367   1.275       .  A
O361        C368   1.277       .  A
O362        C368   1.272       .  A
C363        C448   1.487       .  S
C364        C499   1.492       .  S
C365        C835   1.508       .  S
C366        C899   1.519       .  S
C367        C531   1.487   1_655  S
C368       C1761   1.479   1_554  S
Zn369       O374   1.985       .  S
Zn369       O378   2.005       .  S
Zn369       O385   1.997       .  S
Zn369       O373   1.900       .  S
Zn370       O375   2.156       .  S
Zn370       O377   2.171       .  S
Zn370       O381   2.033       .  S
Zn370       O373   1.928       .  S
Zn371       O376   2.022       .  S
Zn371       O379   1.972       .  S
Zn371       O382   1.990   1_545  S
Zn371       O373   1.915       .  S
Zn372       O380   2.018       .  S
Zn372       O383   2.007       .  S
Zn372       O384   1.987       .  S
Zn372       O373   1.915       .  S
O374        C386   1.271       .  A
O375        C387   1.293       .  A
O376        C388   1.275       .  A
O377        C386   1.301       .  A
O378        C388   1.271       .  A
O379        C387   1.271       .  A
O380        C389   1.272   1_545  A
O381        C390   1.275       .  A
O382        C389   1.273       .  A
O383        C390   1.273       .  A
O384        C391   1.272       .  A
O385        C391   1.272       .  A
C386        C931   1.518       .  S
C387        C787   1.515   1_545  S
C388        C432   1.483       .  S
C389        C464   1.489       .  S
C390        C416   1.481       .  S
C391        C595   1.462   1_655  S
Zn392       O397   2.019       .  S
Zn392       O401   2.146       .  S
Zn392       O408   2.142       .  S
Zn392       O396   1.932       .  S
Zn393       O398   1.992       .  S
Zn393       O400   2.014       .  S
Zn393       O404   2.041       .  S
Zn393       O396   1.916       .  S
Zn394       O399   2.003       .  S
Zn394       O402   2.032       .  S
Zn394       O405   2.021       .  S
Zn394       O396   1.912       .  S
Zn395       O403   2.004       .  S
Zn395       O406   1.975       .  S
Zn395       O407   1.985       .  S
Zn395       O396   1.907       .  S
O397        C409   1.275       .  A
O398        C410   1.272   1_545  A
O399        C411   1.275       .  A
O400        C409   1.275       .  A
O401        C411   1.296       .  A
O402        C410   1.275   1_545  A
O403        C412   1.274       .  A
O404        C413   1.279       .  A
O405        C412   1.276       .  A
O406        C413   1.267       .  A
O407        C414   1.270       .  A
O408        C414   1.290       .  A
C409        C435   1.471       .  S
C410        C451   1.474       .  S
C411       C1187   1.515       .  S
C412       C1697   1.466   1_554  S
C413        C515   1.491   1_655  S
C414        C688   1.511       .  S
C415        C416   1.404       .  A
C415        C420   1.409       .  A
C415        H422   1.083       .  S
C416        C417   1.418       .  A
C417        C418   1.407       .  A
C417        C424   1.519       .  S
C418        C419   1.403       .  A
C418        H423   1.083       .  S
C419       C1690   1.482       .  S
C419        C420   1.418       .  A
C420       C1699   1.518       .  S
C421       C1698   1.516       .  S
C421        F426   1.383       .  S
C421        F427   1.383       .  S
C421       F1703   1.384       .  S
C424        F428   1.383       .  S
C424        F429   1.383       .  S
C424        F430   1.385       .  S
F425       C1699   1.385   1_455  S
C431        C432   1.407       .  A
C431        C436   1.409       .  A
C431        H438   1.083       .  S
C432        C433   1.422       .  A
C433        C434   1.403       .  A
C433        C440   1.521       .  S
C434        C435   1.399       .  A
C434        H439   1.084       .  S
C435        C436   1.413       .  A
C436        C437   1.517       .  S
C437        F441   1.385   1_545  S
C437        F442   1.382   1_545  S
C437        F443   1.384   1_545  S
C440        F444   1.383       .  S
C440        F445   1.384       .  S
C440        F446   1.385       .  S
C447        C448   1.409       .  A
C447        C452   1.406       .  A
C447        H454   1.083       .  S
C448        C449   1.421       .  A
C449        C450   1.405       .  A
C449        C456   1.520       .  S
C450        C451   1.402       .  A
C450        H455   1.084       .  S
C451        C452   1.414       .  A
C452        C453   1.520       .  S
C453        F457   1.384       .  S
C453        F458   1.383       .  S
C453        F459   1.385       .  S
C456        F460   1.382       .  S
C456        F461   1.384       .  S
C456        F462   1.385       .  S
C463        C464   1.413       .  A
C463        C468   1.403       .  A
C463        H470   1.082       .  S
C464        C465   1.426       .  A
C465        C466   1.404       .  A
C465        C472   1.522       .  S
C466        C467   1.398       .  A
C466        H471   1.084       .  S
C467        C468   1.407       .  A
C468        C469   1.519       .  S
C469        F473   1.384       .  S
C469        F474   1.383       .  S
C469        F475   1.382       .  S
C472        F476   1.383       .  S
C472        F477   1.383       .  S
C472        F478   1.385       .  S
C479        C480   1.407       .  A
C479        C484   1.410       .  A
C479        H486   1.083       .  S
C480        C481   1.422       .  A
C481        C482   1.400       .  A
C481        C488   1.522       .  S
C482        C483   1.398       .  A
C482        H487   1.084       .  S
C483       C1646   1.472       .  S
C483        C484   1.414       .  A
C484       C1763   1.517       .  S
C485       C1762   1.519       .  S
C485        F489   1.384       .  S
C485        F490   1.382       .  S
C485        F491   1.382       .  S
C488        F492   1.383       .  S
C488        F493   1.383       .  S
C488        F494   1.385       .  S
C495        C496   1.405       .  A
C495        C500   1.401       .  A
C495        H502   1.084       .  S
C496        C497   1.417       .  A
C497        C498   1.415       .  A
C497        C504   1.517       .  S
C498        C499   1.411       .  A
C498        H503   1.083       .  S
C499        C500   1.422       .  A
C500        C501   1.524       .  S
C501        F505   1.385       .  S
C501        F506   1.383       .  S
C501        F507   1.384       .  S
C504        F508   1.380       .  S
C504        F509   1.383       .  S
C504        F510   1.385       .  S
C511        C512   1.400       .  A
C511        C516   1.407       .  A
C511        H518   1.083       .  S
C512        C513   1.413       .  A
C513        C514   1.403       .  A
C513        C520   1.515       .  S
C514        C515   1.406       .  A
C514        H519   1.082       .  S
C515        C516   1.428       .  A
C516        C517   1.523       .  S
C517        F521   1.385       .  S
C517        F522   1.383       .  S
C517        F523   1.384   1_455  S
C520        F524   1.382       .  S
C520        F525   1.384       .  S
C520        F526   1.385       .  S
C527        C528   1.403       .  A
C527        C532   1.408       .  A
C527        H534   1.083       .  S
C528        C529   1.411       .  A
C529        C530   1.402       .  A
C529        C536   1.521       .  S
C530        C531   1.410       .  A
C530        H535   1.083   1_455  S
C531        C532   1.420       .  A
C532        C533   1.519       .  S
C533        F537   1.383       .  S
C533        F538   1.384       .  S
C533        F539   1.385       .  S
C536        F540   1.384   1_565  S
C536        F541   1.382   1_565  S
C536        F542   1.385       .  S
C543        C544   1.405       .  A
C543        C548   1.406       .  A
C543        H550   1.083       .  S
C544        C545   1.421       .  A
C545        C546   1.407       .  A
C545        C552   1.520       .  S
C546        C547   1.400       .  A
C546        H551   1.084       .  S
C547        C548   1.413       .  A
C548        C549   1.518       .  S
C549        F553   1.385       .  S
C549        F554   1.383       .  S
C549        F555   1.383   1_565  S
C552        F556   1.384       .  S
C552        F557   1.382       .  S
C552        F558   1.385       .  S
C559        C560   1.410       .  A
C559        C564   1.411       .  A
C559        H566   1.082       .  S
C560        C561   1.428       .  A
C561        C562   1.404       .  A
C561        C568   1.525       .  S
C562        C563   1.404       .  A
C562        H567   1.083       .  S
C563       C1599   1.490       .  S
C563        C564   1.417       .  A
C564        C565   1.517       .  S
C565        F569   1.384       .  S
C565       F1848   1.383       .  S
C565       F1849   1.379       .  S
C568        F572   1.384       .  S
C568        F573   1.384       .  S
C568        F574   1.385       .  S
F570       C1843   1.382       .  S
F571       C1843   1.383       .  S
C575        C576   1.406       .  A
C575        C580   1.410       .  A
C575        H582   1.083       .  S
C576        C577   1.420       .  A
C577        C578   1.409       .  A
C577        C584   1.520       .  S
C578        C579   1.405       .  A
C578        H583   1.084       .  S
C579        C580   1.415       .  A
C580        C581   1.512       .  S
C581        F585   1.384       .  S
C581        F586   1.380       .  S
C581        F587   1.383       .  S
C584        F588   1.382       .  S
C584        F589   1.384       .  S
C584        F590   1.385       .  S
C591        C592   1.403       .  A
C591        C596   1.402       .  A
C591        H598   1.083       .  S
C592        C593   1.419       .  A
C593        C594   1.401       .  A
C593        C600   1.520       .  S
C594        C595   1.399       .  A
C594        H599   1.084       .  S
C595        C596   1.414       .  A
C596        C597   1.520       .  S
C597        F601   1.385       .  S
C597        F602   1.383       .  S
C597        F603   1.384   1_455  S
C600        F604   1.383       .  S
C600        F605   1.382       .  S
C600        F606   1.385       .  S
C607        C608   1.416       .  A
C607        C612   1.420       .  A
C607        H614   1.080       .  S
C608        C609   1.417       .  A
C609        C610   1.422       .  A
C609        C616   1.517       .  S
C610        C611   1.418   1_455  A
C610        H615   1.083   1_455  S
C611        C612   1.416   1_655  A
C612        C613   1.517       .  S
C613        F617   1.384       .  S
C613        F618   1.383       .  S
C613        F619   1.383   1_455  S
C616        F620   1.382       .  S
C616        F621   1.384       .  S
C616        F622   1.385       .  S
C623        C624   1.425       .  A
C623        C628   1.426       .  A
C623        H630   1.082       .  S
C624        C625   1.420       .  A
C625        C626   1.411       .  A
C625        C632   1.522       .  S
C626        C627   1.417       .  A
C626        H631   1.082       .  S
C627        C628   1.414       .  A
C628        C629   1.515       .  S
C629        F633   1.385       .  S
C629        F634   1.383   1_565  S
C629        F635   1.383   1_565  S
C632        F636   1.384       .  S
C632        F637   1.381       .  S
C632        F638   1.385       .  S
C639        C640   1.401       .  A
C639        C644   1.405       .  A
C639        H646   1.084       .  S
C640        C641   1.413       .  A
C641        C642   1.410       .  A
C641        C648   1.513       .  S
C642        C643   1.406       .  A
C642        H647   1.083       .  S
C643        C644   1.416       .  A
C644        C645   1.516       .  S
C645        F649   1.385       .  S
C645        F650   1.384       .  S
C645        F651   1.381       .  S
C648        F652   1.383       .  S
C648        F653   1.382       .  S
C648        F654   1.385       .  S
C655        C656   1.408       .  A
C655        C660   1.413       .  A
C655        H662   1.083       .  S
C656       C1552   1.490   1_554  S
C656        C657   1.422       .  A
C657        C658   1.405       .  A
C657        C664   1.521       .  S
C658        C659   1.402       .  A
C658        H663   1.084       .  S
C659        C660   1.416       .  A
C660        C661   1.516       .  S
C661        F665   1.384       .  S
C661        F666   1.383       .  S
C661        F667   1.382       .  S
C664        F668   1.383       .  S
C664        F670   1.385       .  S
C664       F1947   1.383   1_554  S
F669       C1942   1.384       .  S
C671        C672   1.406       .  A
C671        C676   1.405       .  A
C671        H678   1.083       .  S
C672        C673   1.420       .  A
C673        C674   1.404       .  A
C673        C680   1.520       .  S
C674        C675   1.400       .  A
C674        H679   1.083       .  S
C675        C676   1.412       .  A
C676        C677   1.518       .  S
C677        F681   1.384       .  S
C677        F682   1.382       .  S
C677        F683   1.384       .  S
C680        F684   1.384       .  S
C680        F685   1.383       .  S
C680        F686   1.385       .  S
C687        C688   1.413   1_455  A
C687        C692   1.420       .  A
C687        H694   1.083       .  S
C688        C689   1.412       .  A
C689        C690   1.424   1_655  A
C689        C696   1.516       .  S
C690        C691   1.424       .  A
C690        H695   1.082       .  S
C691        C692   1.422       .  A
C692        C693   1.517       .  S
C693        F697   1.383       .  S
C693        F698   1.383       .  S
C693        F699   1.383       .  S
C696        F700   1.383       .  S
C696        F701   1.383       .  S
C696        F702   1.384       .  S
C703        C704   1.416       .  A
C703        C708   1.417       .  A
C703        H710   1.082       .  S
C704        C705   1.424       .  A
C705        C706   1.429       .  A
C705        C712   1.515       .  S
C706        C707   1.413       .  A
C706        H711   1.083       .  S
C707        C708   1.417       .  A
C708        C709   1.520       .  S
C709        F713   1.385       .  S
C709        F714   1.382       .  S
C709        F715   1.383       .  S
C712        F716   1.382       .  S
C712        F717   1.384       .  S
C712        F718   1.385       .  S
C719        C720   1.402       .  A
C719        C724   1.405       .  A
C719        H726   1.084       .  S
C720       C1482   1.472   1_554  S
C720        C721   1.416       .  A
C721        C722   1.405       .  A
C721        C728   1.519       .  S
C722        C723   1.402       .  A
C722        H727   1.083       .  S
C723        C724   1.418       .  A
C724        C725   1.521       .  S
C725        F729   1.385       .  S
C725        F730   1.382       .  S
C725        F731   1.383       .  S
C728        F732   1.382       .  S
C728        F733   1.383   1_554  S
C728        F734   1.385       .  S
C735        C736   1.404       .  A
C735        C740   1.402       .  A
C735        H742   1.084       .  S
C736        C737   1.421       .  A
C737        C738   1.408       .  A
C737        C744   1.520       .  S
C738        C739   1.400       .  A
C738        H743   1.083       .  S
C739        C740   1.414       .  A
C740        C741   1.520       .  S
C741        F745   1.385       .  S
C741        F746   1.383       .  S
C741        F747   1.382       .  S
C744        F748   1.384       .  S
C744        F749   1.383       .  S
C744        F750   1.385       .  S
C751        C752   1.407       .  A
C751        C756   1.404       .  A
C751        H758   1.083       .  S
C752        C753   1.417       .  A
C753        C754   1.410       .  A
C753        C760   1.519       .  S
C754        C755   1.412       .  A
C754        H759   1.082       .  S
C755        C756   1.424       .  A
C756        C757   1.524       .  S
C757        F761   1.385       .  S
C757        F762   1.384       .  S
C757        F763   1.383       .  S
C760        F764   1.383       .  S
C760        F765   1.383       .  S
C760        F766   1.385       .  S
C767        C768   1.401       .  A
C767        C772   1.404       .  A
C767        H774   1.083       .  S
C768        C769   1.415       .  A
C769        C770   1.401       .  A
C769        C776   1.521       .  S
C770        C771   1.405       .  A
C770        H775   1.083       .  S
C771        C772   1.422       .  A
C772        C773   1.522       .  S
C773        F777   1.385       .  S
C773        F778   1.383       .  S
C773        F779   1.384       .  S
C776        F780   1.384       .  S
C776        F781   1.382       .  S
C776        F782   1.384       .  S
C783        C784   1.422       .  A
C783        C788   1.423       .  A
C783        H790   1.082       .  S
C784        C785   1.419       .  A
C785        C786   1.418       .  A
C785        C792   1.519       .  S
C786        C787   1.416       .  A
C786        H791   1.083       .  S
C787        C788   1.414       .  A
C788        C789   1.515   1_565  S
C789        F793   1.385   1_545  S
C789        F794   1.383       .  S
C789        F795   1.382       .  S
C792        F796   1.383       .  S
C792        F797   1.383       .  S
C792        F798   1.383       .  S
C799        C800   1.401       .  A
C799        C804   1.406       .  A
C799        H806   1.084       .  S
C800        C801   1.410       .  A
C801        C802   1.401       .  A
C801        C808   1.520       .  S
C802        C803   1.407       .  A
C802        H807   1.083       .  S
C803        C804   1.416       .  A
C804        C805   1.517       .  S
C805        F809   1.383       .  S
C805        F810   1.382       .  S
C805        F811   1.384       .  S
C808        F812   1.383       .  S
C808        F813   1.383       .  S
C808        F814   1.385       .  S
C815        C816   1.409       .  A
C815        C820   1.402       .  A
C815        H822   1.082       .  S
C816        C817   1.419       .  A
C817        C818   1.411       .  A
C817        C824   1.518       .  S
C818        C819   1.406       .  A
C818        H823   1.083       .  S
C819        C820   1.413       .  A
C820        C821   1.521       .  S
C821        F825   1.385       .  S
C821        F826   1.382       .  S
C821        F827   1.383       .  S
C824        F828   1.384       .  S
C824        F829   1.383       .  S
C824        F830   1.385       .  S
C831        C832   1.413       .  A
C831        C836   1.412       .  A
C831        H838   1.084       .  S
C832        C833   1.423       .  A
C833        C834   1.429       .  A
C833        C840   1.514       .  S
C834        C835   1.413       .  A
C834        H839   1.083       .  S
C835        C836   1.419       .  A
C836        C837   1.519       .  S
C837        F841   1.385       .  S
C837        F842   1.384       .  S
C837        F843   1.383       .  S
C840        F844   1.383       .  S
C840        F845   1.382       .  S
C840        F846   1.385       .  S
C847        C848   1.410       .  A
C847        C852   1.399       .  A
C847        H854   1.082       .  S
C848        C849   1.428       .  A
C849        C850   1.410       .  A
C849        C856   1.520       .  S
C850        C851   1.398       .  A
C850        H855   1.083       .  S
C851        C852   1.408       .  A
C852        C853   1.521       .  S
C853        F857   1.385       .  S
C853        F858   1.383       .  S
C853        F859   1.383       .  S
C856        F860   1.383       .  S
C856        F861   1.383       .  S
C856        F862   1.385       .  S
C863        C864   1.401       .  A
C863        C868   1.405       .  A
C863        H870   1.084       .  S
C864        C865   1.416       .  A
C865        C866   1.404       .  A
C865        C872   1.517       .  S
C866        C867   1.402       .  A
C866        H871   1.084       .  S
C867       C1457   1.474   1_554  S
C867        C868   1.417       .  A
C868        C869   1.519       .  S
C869        F873   1.385       .  S
C869        F874   1.383       .  S
C869        F875   1.383       .  S
C872        F876   1.383       .  S
C872        F877   1.379       .  S
C872        F878   1.385       .  S
C879        C880   1.397       .  A
C879        C884   1.405       .  A
C879        H886   1.084       .  S
C880        C881   1.410       .  A
C881        C882   1.398       .  A
C881        C888   1.521       .  S
C882        C883   1.411       .  A
C882        H887   1.082       .  S
C883        C884   1.426       .  A
C884        C885   1.518       .  S
C885        F889   1.380       .  S
C885        F890   1.383       .  S
C885        F891   1.384       .  S
C888        F892   1.381       .  S
C888        F893   1.378       .  S
C888        F894   1.385       .  S
C895        C896   1.405       .  A
C895        C900   1.414       .  A
C895        H902   1.083   1_554  S
C896        C897   1.428       .  A
C897        C898   1.431       .  A
C897        C904   1.515       .  S
C898        C899   1.410       .  A
C898        H903   1.083       .  S
C899        C900   1.428       .  A
C900        C901   1.522       .  S
C901        F905   1.385   1_554  S
C901        F906   1.382       .  S
C901        F907   1.382       .  S
C904        F908   1.383       .  S
C904        F910   1.384       .  S
C904       F2187   1.382       .  S
F909       C2182   1.384       .  S
C911        C912   1.420       .  A
C911        C916   1.412       .  A
C911        H918   1.084   1_455  S
C912        C913   1.424       .  A
C913        C914   1.428       .  A
C913       C2198   1.515       .  S
C914        C915   1.414       .  A
C914        H919   1.083       .  S
C915        C916   1.413       .  A
C916        C917   1.518       .  S
C917        F921   1.384   1_455  S
C917        F922   1.383       .  S
C917        F923   1.383       .  S
C920       C2191   1.516   1_554  S
C920        F924   1.384       .  S
C920        F925   1.382       .  S
C920        F926   1.385       .  S
C927        C928   1.403       .  A
C927        C932   1.427       .  A
C927        H934   1.083       .  S
C928        C929   1.432       .  A
C929        C930   1.413       .  A
C929        C936   1.508       .  S
C930        C931   1.395       .  A
C930        H935   1.083       .  S
C931        C932   1.438       .  A
C932        C933   1.519       .  S
C933        F937   1.385   1_655  S
C933        F938   1.383       .  S
C933        F939   1.384       .  S
C936        F940   1.379       .  S
C936        F941   1.382       .  S
C936        F942   1.385       .  S
C943        C944   1.420       .  A
C943        C948   1.420       .  A
C943        H950   1.079   1_455  S
C944        C945   1.417       .  A
C945        C946   1.420       .  A
C945        C952   1.518       .  S
C946        C947   1.422       .  A
C946        H951   1.082       .  S
C947        C948   1.415       .  A
C948        C949   1.517       .  S
C949        F953   1.385   1_455  S
C949        F954   1.383       .  S
C949        F955   1.383       .  S
C952        F956   1.382       .  S
C952        F957   1.383       .  S
C952        F958   1.385       .  S
C959        C960   1.402       .  A
C959        C964   1.408       .  A
C959        H966   1.083       .  S
C960        C961   1.417       .  A
C961        C962   1.405       .  A
C961        C968   1.520       .  S
C962        C963   1.404       .  A
C962        H967   1.083       .  S
C963        C964   1.420       .  A
C964        C965   1.519       .  S
C965        F969   1.385       .  S
C965        F970   1.383       .  S
C965        F971   1.383       .  S
C968        F972   1.382       .  S
C968        F973   1.383       .  S
C968        F974   1.385       .  S
C975        C976   1.402       .  A
C975        C980   1.406       .  A
C975        H982   1.084       .  S
C976        C977   1.417       .  A
C977        C978   1.400       .  A
C977        C984   1.516       .  S
C978        C979   1.399       .  A
C978        H983   1.084       .  S
C979        C980   1.416       .  A
C980        C981   1.518       .  S
C981        F985   1.385       .  S
C981        F986   1.383       .  S
C981        F987   1.382       .  S
C984        F988   1.384       .  S
C984        F989   1.381       .  S
C984        F990   1.385   1_655  S
C991        C992   1.406       .  A
C991        C996   1.420       .  A
C991        H998   1.083       .  S
C992        C993   1.426       .  A
C993        C994   1.426       .  A
C993       C1000   1.517       .  S
C994        C995   1.407       .  A
C994        H999   1.083       .  S
C995        C996   1.426       .  A
C996        C997   1.520       .  S
C997       F1001   1.385       .  S
C997       F1002   1.380       .  S
C997       F1003   1.382       .  S
C1000      F1004   1.384       .  S
C1000      F1005   1.381       .  S
C1000      F1006   1.383       .  S
C1007      C1008   1.425       .  A
C1007      C1012   1.423       .  A
C1007      H1014   1.082       .  S
C1008      C1009   1.424       .  A
C1009      C1010   1.420       .  A
C1009      C1016   1.518       .  S
C1010      C1011   1.412       .  A
C1010      H1015   1.083       .  S
C1011      C1012   1.410       .  A
C1012      C1013   1.516       .  S
C1013      F1017   1.384       .  S
C1013      F1018   1.384       .  S
C1013      F1019   1.383       .  S
C1016      F1020   1.383       .  S
C1016      F1021   1.383       .  S
C1016      F1022   1.385       .  S
C1023      C1024   1.406       .  A
C1023      C1028   1.407       .  A
C1023      H1030   1.083       .  S
C1024      C1025   1.419       .  A
C1025      C1026   1.404       .  A
C1025      C1032   1.518       .  S
C1026      C1027   1.403       .  A
C1026      H1031   1.084       .  S
C1027      C1028   1.417       .  A
C1028      C1029   1.519       .  S
C1029      F1033   1.385       .  S
C1029      F1034   1.383       .  S
C1029      F1035   1.383       .  S
C1032      F1036   1.382       .  S
C1032      F1037   1.382       .  S
C1032      F1038   1.385       .  S
C1039      C1040   1.414       .  A
C1039      C1044   1.417       .  A
C1039      H1046   1.083       .  S
C1040      C1041   1.413       .  A
C1041      C1042   1.426       .  A
C1041      C2326   1.515       .  S
C1042      C1043   1.425       .  A
C1042      H1047   1.081       .  S
C1043      C1044   1.425       .  A
C1044      C1045   1.521       .  S
C1045      F1049   1.384       .  S
C1045      F1050   1.377       .  S
C1045      F1051   1.383       .  S
C1048      C2319   1.517       .  S
C1048      F1052   1.384       .  S
C1048      F1053   1.383       .  S
C1048      F1054   1.385       .  S
C1055      C1056   1.401       .  A
C1055      C1060   1.409       .  A
C1055      H1062   1.083       .  S
C1056      C2335   1.417       .  A
C1057      C1058   1.402       .  A
C1057      C2334   1.407       .  A
C1057      C1064   1.518       .  S
C1058      C1059   1.412   1_556  A
C1058      H1063   1.083       .  S
C1059      C2338   1.425       .  A
C1060      C2337   1.420       .  A
C1060      C1061   1.519       .  S
C1061      F1065   1.385       .  S
C1061      F1066   1.382       .  S
C1061      F1067   1.383       .  S
C1064      F1068   1.384       .  S
C1064      F1069   1.382       .  S
C1064      F1070   1.385       .  S
C1071      C1072   1.423       .  A
C1071      C1076   1.421       .  A
C1071      H1078   1.084       .  S
C1072      C1073   1.422       .  A
C1073      C1074   1.416       .  A
C1073      C2358   1.520       .  S
C1074      C1075   1.413       .  A
C1074      H1079   1.086       .  S
C1075      C1076   1.411       .  A
C1076      C1077   1.515       .  S
C1077      F1081   1.384       .  S
C1077      F1082   1.382       .  S
C1077      F1083   1.383       .  S
C1080      C2351   1.518       .  S
C1080      F1084   1.384   1_556  S
C1080      F1085   1.382       .  S
C1080      F1086   1.385       .  S
C1087      C1088   1.410       .  A
C1087      C1092   1.410       .  A
C1087      H1094   1.083       .  S
C1088      C1089   1.423       .  A
C1089      C1090   1.402       .  A
C1089      C1096   1.522       .  S
C1090      C1091   1.400       .  A
C1090      H1095   1.084       .  S
C1091      C1092   1.413       .  A
C1092      C1093   1.517       .  S
C1093      F1097   1.385       .  S
C1093      F1098   1.383       .  S
C1093      F1099   1.383       .  S
C1096      F1100   1.384       .  S
C1096      F1101   1.383       .  S
C1096      F1102   1.385       .  S
C1103      C1104   1.401       .  A
C1103      C1108   1.404       .  A
C1103      H1110   1.084       .  S
C1104      C1105   1.414       .  A
C1105      C1106   1.410       .  A
C1105      C1112   1.517       .  S
C1106      C1107   1.409       .  A
C1106      H1111   1.083       .  S
C1107      C1108   1.421       .  A
C1108      C1109   1.520       .  S
C1109      F1113   1.385       .  S
C1109      F1114   1.383       .  S
C1109      F1115   1.384       .  S
C1112      F1116   1.384       .  S
C1112      F1117   1.382       .  S
C1112      F1118   1.384       .  S
C1119      C1120   1.423       .  A
C1119      C1124   1.420       .  A
C1119      H1126   1.082       .  S
C1120      C1121   1.422       .  A
C1121      C1122   1.421       .  A
C1121      C1128   1.517       .  S
C1122      C1123   1.412       .  A
C1122      H1127   1.083       .  S
C1123      C1124   1.409       .  A
C1124      C1125   1.515   1_545  S
C1125      F1129   1.384       .  S
C1125      F1130   1.383       .  S
C1125      F1131   1.383       .  S
C1128      F1132   1.383       .  S
C1128      F1133   1.383       .  S
C1128      F1134   1.385       .  S
C1135      C1136   1.403       .  A
C1135      C1140   1.409       .  A
C1135      H1142   1.082       .  S
C1136      C1137   1.419       .  A
C1137      C1138   1.397       .  A
C1137      C1144   1.524       .  S
C1138      C1139   1.405       .  A
C1138      H1143   1.082       .  S
C1139      C1140   1.427       .  A
C1140      C1141   1.522       .  S
C1141      F1145   1.385       .  S
C1141      F1146   1.384       .  S
C1141      F1147   1.383       .  S
C1144      F1148   1.384       .  S
C1144      F1149   1.383       .  S
C1144      F1150   1.385       .  S
C1151      C1152   1.424       .  A
C1151      C1156   1.420       .  A
C1151      H1158   1.081   1_565  S
C1152      C1153   1.427       .  A
C1153      C1154   1.428       .  A
C1153      C1160   1.516       .  S
C1154      C1155   1.412       .  A
C1154      H1159   1.083       .  S
C1155      C1156   1.411       .  A
C1156      C1157   1.517       .  S
C1157      F1161   1.384   1_565  S
C1157      F1162   1.383       .  S
C1157      F1163   1.384       .  S
C1160      F1164   1.382       .  S
C1160      F1165   1.384       .  S
C1160      F1166   1.385       .  S
C1167      C1168   1.398       .  A
C1167      C1172   1.402       .  A
C1167      H1174   1.084       .  S
C1168      C1169   1.417       .  A
C1169      C1170   1.413       .  A
C1169      C1176   1.517       .  S
C1170      C1171   1.407       .  A
C1170      H1175   1.083       .  S
C1171      C1172   1.424       .  A
C1172      C1173   1.523       .  S
C1173      F1177   1.385       .  S
C1173      F1178   1.383       .  S
C1173      F1179   1.384       .  S
C1176      F1180   1.383       .  S
C1176      F1181   1.383       .  S
C1176      F1182   1.385       .  S
C1183      C1184   1.416       .  A
C1183      C1188   1.416       .  A
C1183      H1190   1.082       .  S
C1184      C1185   1.413       .  A
C1185      C1186   1.423       .  A
C1185      C1192   1.515   1_545  S
C1186      C1187   1.420       .  A
C1186      H1191   1.082       .  S
C1187      C1188   1.417       .  A
C1188      C1189   1.519       .  S
C1189      F1194   1.383       .  S
C1189      F1195   1.383       .  S
C1189      F2471   1.384       .  S
C1192      F1196   1.383       .  S
C1192      F1197   1.382       .  S
C1192      F1198   1.384       .  S
F1193      C2467   1.385       .  S
C1199      C1200   1.399       .  A
C1199      C1204   1.407       .  A
C1199      H1206   1.083       .  S
C1200      C2479   1.413       .  A
C1201      C1202   1.399       .  A
C1201      C2478   1.416   1_554  A
C1201      C1208   1.521       .  S
C1202      C1203   1.408   1_554  A
C1202      H1207   1.082       .  S
C1203      C2482   1.428       .  A
C1204      C2481   1.427       .  A
C1204      C1205   1.522       .  S
C1205      F1209   1.385       .  S
C1205      F1210   1.383       .  S
C1205      F1211   1.383       .  S
C1208      F1212   1.383       .  S
C1208      F1213   1.384       .  S
C1208      F1214   1.385       .  S
C1215      C1216   1.419       .  A
C1215      C1220   1.414       .  A
C1215      H1222   1.082       .  S
C1216      C1217   1.418       .  A
C1217      C1218   1.427       .  A
C1217      C1224   1.514       .  S
C1218      C1219   1.418       .  A
C1218      H1223   1.083       .  S
C1219      C1220   1.414       .  A
C1220      C1221   1.520       .  S
C1221      F1225   1.382       .  S
C1221      F1226   1.382       .  S
C1221      F1227   1.384       .  S
C1224      F1228   1.383       .  S
C1224      F1229   1.383       .  S
C1224      F1230   1.385       .  S
C1231      C1232   1.408       .  A
C1231      C1236   1.399       .  A
C1231      H1238   1.083       .  S
C1232      C1233   1.424       .  A
C1233      C1234   1.410       .  A
C1233      C1240   1.519       .  S
C1234      C1235   1.400       .  A
C1234      H1239   1.083       .  S
C1235      C1236   1.410       .  A
C1236      C1237   1.521       .  S
C1237      F1241   1.385       .  S
C1237      F1242   1.384       .  S
C1237      F1243   1.382       .  S
C1240      F1244   1.383       .  S
C1240      F1245   1.383       .  S
C1240      F1246   1.385       .  S
C1247      C1248   1.402       .  A
C1247      C1252   1.403       .  A
C1247      H1254   1.083       .  S
C1248      C1249   1.418       .  A
C1249      C1250   1.409       .  A
C1249      C1256   1.519       .  S
C1250      C1251   1.403       .  A
C1250      H1255   1.083       .  S
C1251      C1252   1.416       .  A
C1252      C1253   1.520       .  S
C1253      F1257   1.385   1_545  S
C1253      F1258   1.382   1_545  S
C1253      F1259   1.383       .  S
C1256      F1260   1.383       .  S
C1256      F1261   1.383       .  S
C1256      F1262   1.385       .  S
C1263      C1264   1.409   1_556  A
C1263      C1268   1.404       .  A
C1263      H1270   1.082       .  S
C1264      C2543   1.423       .  A
C1265      C1266   1.401       .  A
C1265      C2542   1.411       .  A
C1265      C1272   1.520       .  S
C1266      C1267   1.405       .  A
C1266      H1271   1.084       .  S
C1267      C2546   1.415       .  A
C1268      C2545   1.416       .  A
C1268      C1269   1.521       .  S
C1269      F1273   1.382       .  S
C1269      F1274   1.384       .  S
C1269      F2553   1.385       .  S
C1272      F1277   1.384       .  S
C1272      F1278   1.385       .  S
C1272      F2554   1.382       .  S
F1275      C2547   1.385       .  S
F1276      C2550   1.383       .  S
Zn1279     O1284   1.991       .  S
Zn1279     O1288   2.000       .  S
Zn1279     O1295   1.970       .  S
Zn1280     O1285   1.978       .  S
Zn1280     O1287   2.021       .  S
Zn1280     O1291   2.001       .  S
Zn1280     O1283   1.914       .  S
Zn1281     O1286   2.018       .  S
Zn1281     O1289   2.038       .  S
Zn1281     O1292   2.009       .  S
Zn1282     O1290   2.137   1_545  S
Zn1282     O1293   2.020       .  S
Zn1282     O1294   2.129       .  S
Zn1282     O1283   1.926       .  S
O1286      C1298   1.276       .  A
O1287      C1296   1.274       .  A
O1288      C1298   1.272       .  A
O1289      C1297   1.278       .  A
O1291      C1300   1.274       .  A
O1292      C1299   1.279   1_545  A
O1293      C1300   1.274       .  A
O1294      C1301   1.289       .  A
C1296      C2542   1.463       .  S
C1297      C2478   1.477       .  S
C1298      C2526   1.476       .  S
C1299      C2497   1.528       .  S
C1300      C2513   1.479       .  S
C1301      C2462   1.503       .  S
Zn1302     O1307   2.150   1_545  S
Zn1302     O1311   2.124       .  S
Zn1302     O1318   2.021       .  S
Zn1302     O1306   1.935       .  S
Zn1303     O1308   2.026       .  S
Zn1303     O1310   2.017       .  S
Zn1303     O1314   2.026       .  S
Zn1303     O1306   1.919       .  S
Zn1304     O1309   1.988       .  S
Zn1304     O1312   2.005       .  S
Zn1304     O1315   1.991       .  S
Zn1304     O1306   1.924       .  S
Zn1305     O1313   2.026       .  S
Zn1305     O1316   1.981       .  S
Zn1305     O1317   1.998       .  S
Zn1305     O1306   1.921       .  S
O1307      C1319   1.296       .  A
O1308      C1320   1.276       .  A
O1309      C1321   1.271       .  A
O1310      C1319   1.275   1_545  A
O1311      C1321   1.289       .  A
O1312      C1320   1.274       .  A
O1313      C1322   1.273       .  A
O1314      C1323   1.276       .  A
O1315      C1322   1.270       .  A
O1316      C1323   1.270       .  A
O1317      C1324   1.272       .  A
O1318      C1324   1.274       .  A
C1319      C2430   1.516       .  S
C1320      C2510   1.472       .  S
C1321      C2401   1.499       .  S
C1322      C2446   1.484       .  S
C1323      C2414   1.468       .  S
C1324      C2529   1.472       .  S
Zn1325     O1330   2.027       .  S
Zn1325     O1334   2.027       .  S
Zn1325     O1341   2.010       .  S
Zn1326     O1331   2.008       .  S
Zn1326     O1333   2.005       .  S
Zn1326     O1337   1.986       .  S
Zn1326     O1329   1.909       .  S
Zn1327     O1332   2.014       .  S
Zn1327     O1335   2.025       .  S
Zn1327     O1338   1.948       .  S
Zn1328     O1336   2.196   1_556  S
Zn1328     O1339   2.068       .  S
Zn1328     O1340   2.158       .  S
Zn1328     O1329   1.946       .  S
O1332      C1344   1.275       .  A
O1333      C1342   1.274       .  A
O1334      C1344   1.275       .  A
O1335      C1343   1.277       .  A
O1337      C1346   1.273       .  A
O1338      C1345   1.266       .  A
O1339      C1346   1.280       .  A
O1340      C1347   1.297       .  A
C1342      C2334   1.468       .  S
C1343      C2481   1.487       .  S
C1344      C2369   1.471       .  S
C1345      C2318   1.499       .  S
C1346      C2382   1.480       .  S
C1347      C2350   1.522       .  S
Zn1348     O1353   2.038       .  S
Zn1348     O1357   2.025       .  S
Zn1348     O1364   2.003       .  S
Zn1348     O1352   1.917       .  S
Zn1349     O1354   2.006       .  S
Zn1349     O1356   1.963       .  S
Zn1349     O1360   2.004       .  S
Zn1349     O1352   1.915       .  S
Zn1350     O1355   2.014       .  S
Zn1350     O1358   1.982       .  S
Zn1350     O1361   1.982       .  S
Zn1350     O1352   1.925       .  S
Zn1351     O1359   2.154       .  S
Zn1351     O1362   2.048       .  S
Zn1351     O1363   2.162       .  S
Zn1351     O1352   1.940       .  S
O1353      C1365   1.275       .  A
O1354      C1366   1.272       .  A
O1355      C1367   1.274       .  A
O1356      C1365   1.269       .  A
O1357      C1367   1.275       .  A
O1358      C1366   1.269       .  A
O1359      C1368   1.293       .  A
O1360      C1369   1.271       .  A
O1361      C1368   1.270       .  A
O1362      C1369   1.277       .  A
O1363      C1370   1.298       .  A
O1364      C1370   1.276       .  A
C1365      C2449   1.474       .  S
C1366      C2302   1.468       .  S
C1367      C2366   1.476       .  S
C1368      C2270   1.505       .  S
C1369      C2385   1.491       .  S
C1370      C2286   1.525       .  S
Zn1371     O1376   2.036       .  S
Zn1371     O1380   2.163       .  S
Zn1371     O1387   2.147       .  S
Zn1371     O1375   1.923       .  S
Zn1372     O1377   1.962       .  S
Zn1372     O1379   2.019       .  S
Zn1372     O1383   2.041       .  S
Zn1372     O1375   1.914       .  S
Zn1373     O1378   2.003       .  S
Zn1373     O1381   2.030       .  S
Zn1373     O1384   2.014       .  S
Zn1373     O1375   1.915       .  S
Zn1374     O1382   2.025       .  S
Zn1374     O1385   1.975       .  S
Zn1374     O1386   1.991       .  S
Zn1374     O1375   1.916       .  S
O1376      C1388   1.276       .  A
O1377      C1389   1.270       .  A
O1378      C1390   1.275       .  A
O1379      C1388   1.276       .  A
O1380      C1390   1.298       .  A
O1381      C1389   1.275       .  A
O1382      C1391   1.276       .  A
O1383      C1392   1.278       .  A
O1384      C1391   1.275       .  A
O1385      C1392   1.268       .  A
O1386      C1393   1.271       .  A
O1387      C1393   1.292       .  A
C1388      C2238   1.488       .  S
C1389      C2305   1.475       .  S
C1390      C2222   1.526   1_655  S
C1391      C2254   1.475       .  S
C1392      C2417   1.482       .  S
C1393      C2206   1.507       .  S
Zn1394     O1399   1.982       .  S
Zn1394     O1403   2.008       .  S
Zn1394     O1410   1.982       .  S
Zn1394     O1398   1.903       .  S
Zn1395     O1400   1.979       .  S
Zn1395     O1402   2.016       .  S
Zn1395     O1406   2.020       .  S
Zn1396     O1401   2.030       .  S
Zn1396     O1404   2.029       .  S
Zn1396     O1407   2.001       .  S
Zn1396     O1398   1.898       .  S
Zn1397     O1405   2.176       .  S
Zn1397     O1408   2.016       .  S
Zn1397     O1409   2.152       .  S
O1401      C1413   1.276       .  A
O1402      C1411   1.275       .  A
O1403      C1413   1.274       .  A
O1404      C1412   1.276       .  A
O1406      C1415   1.274       .  A
O1407      C1414   1.277       .  A
O1408      C1415   1.274       .  A
O1409      C1416   1.292       .  A
C1411      C2337   1.469       .  S
C1412      C2545   1.483       .  S
C1413      C2241   1.474       .  S
C1414      C2190   1.524   1_655  S
C1415      C2257   1.477       .  S
C1416      C2174   1.514       .  S
Zn1417     O1422   2.022       .  S
Zn1417     O1426   2.043       .  S
Zn1417     O1433   2.006       .  S
Zn1417     O1421   1.902       .  S
Zn1418     O1423   1.992       .  S
Zn1418     O1425   1.998       .  S
Zn1418     O1429   1.969       .  S
Zn1418     O1421   1.909       .  S
Zn1419     O1424   1.977       .  S
Zn1419     O1427   2.011       .  S
Zn1419     O1430   2.000       .  S
Zn1419     O1421   1.909       .  S
Zn1420     O1428   2.027       .  S
Zn1420     O1431   2.164       .  S
Zn1420     O1432   2.182       .  S
Zn1420     O1421   1.926       .  S
O1422      C1434   1.276       .  A
O1423      C1435   1.270       .  A
O1424      C1436   1.270       .  A
O1425      C1434   1.273       .  A
O1426      C1436   1.277       .  A
O1427      C1435   1.275       .  A
O1428      C1437   1.276       .  A
O1429      C1438   1.271       .  A
O1430      C1437   1.273       .  A
O1431      C1438   1.293       .  A
O1432      C1439   1.301       .  A
O1433      C1439   1.278       .  A
C1434      C2142   1.474       .  S
C1435      C2158   1.476       .  S
C1436      C2094   1.476       .  S
C1437      C2126   1.474       .  S
C1438      C2433   1.516       .  S
C1439      C2110   1.531       .  S
Zn1440     O1445   2.000       .  S
Zn1440     O1449   2.015       .  S
Zn1440     O1456   1.967       .  S
Zn1440     O1444   1.908       .  S
Zn1441     O1446   2.141       .  S
Zn1441     O1448   2.016       .  S
Zn1441     O1452   2.143       .  S
Zn1441     O1444   1.923       .  S
Zn1442     O1447   1.987       .  S
Zn1442     O1450   1.976       .  S
Zn1442     O1453   2.021       .  S
Zn1442     O1444   1.910       .  S
Zn1443     O1451   2.014       .  S
Zn1443     O1454   2.000       .  S
Zn1443     O1455   2.023       .  S
Zn1443     O1444   1.900       .  S
O1445      C1457   1.273       .  A
O1446      C1458   1.292       .  A
O1447      C1459   1.271       .  A
O1448      C1457   1.272       .  A
O1449      C1459   1.274       .  A
O1450      C1458   1.270       .  A
O1451      C1460   1.273       .  A
O1452      C1461   1.296       .  A
O1453      C1460   1.276       .  A
O1454      C1461   1.276       .  A
O1455      C1462   1.276       .  A
O1456      C1462   1.267       .  A
C1458      C2353   1.508       .  S
C1459      C2078   1.465       .  S
C1460      C2129   1.481       .  S
C1461      C2062   1.518       .  S
C1462      C2046   1.468       .  S
Zn1463     O1468   2.141       .  S
Zn1463     O1472   2.025       .  S
Zn1463     O1479   2.168       .  S
Zn1463     O1467   1.926       .  S
Zn1464     O1469   1.984       .  S
Zn1464     O1471   1.977       .  S
Zn1464     O1475   2.004       .  S
Zn1464     O1467   1.907       .  S
Zn1465     O1470   1.996       .  S
Zn1465     O1473   2.021       .  S
Zn1465     O1476   1.976       .  S
Zn1465     O1467   1.912       .  S
Zn1466     O1474   2.043       .  S
Zn1466     O1477   2.027       .  S
Zn1466     O1478   2.014       .  S
Zn1466     O1467   1.906       .  S
O1468      C1480   1.291       .  A
O1469      C1481   1.272       .  A
O1470      C1482   1.272       .  A
O1471      C1480   1.270       .  A
O1472      C1482   1.276       .  A
O1473      C1481   1.272       .  A
O1474      C1483   1.278       .  A
O1475      C1484   1.274       .  A
O1476      C1483   1.271       .  A
O1477      C1484   1.276       .  A
O1478      C1485   1.279       .  A
O1479      C1485   1.298       .  A
C1480      C2193   1.502       .  S
C1481      C2033   1.487       .  S
C1483      C2081   1.480       .  S
C1484      C2014   1.477       .  S
C1485      C1982   1.528       .  S
Zn1486     O1491   1.987       .  S
Zn1486     O1495   2.035       .  S
Zn1486     O1502   2.005       .  S
Zn1486     O1490   1.925       .  S
Zn1487     O1492   2.019       .  S
Zn1487     O1494   2.028       .  S
Zn1487     O1498   2.009       .  S
Zn1487     O1490   1.915       .  S
Zn1488     O1493   1.978       .  S
Zn1488     O1496   2.000       .  S
Zn1488     O1499   1.972       .  S
Zn1488     O1490   1.919       .  S
Zn1489     O1497   2.154       .  S
Zn1489     O1500   2.167       .  S
Zn1489     O1501   2.031       .  S
Zn1489     O1490   1.944       .  S
O1491      C1503   1.271       .  A
O1492      C1504   1.275       .  A
O1493      C1505   1.268       .  A
O1494      C1503   1.276       .  A
O1495      C1505   1.276       .  A
O1496      C1504   1.272       .  A
O1497      C1506   1.292       .  A
O1498      C1507   1.275       .  A
O1499      C1506   1.269       .  A
O1500      C1507   1.298       .  A
O1501      C1508   1.277       .  A
O1502      C1508   1.273       .  A
C1503      C1953   1.470       .  S
C1504      C2001   1.468       .  S
C1505      C2097   1.469       .  S
C1506      C2289   1.507       .  S
C1507      C1969   1.520       .  S
C1508      C2017   1.477       .  S
Zn1509     O1514   1.912       .  S
Zn1509     O1518   2.003       .  S
Zn1509     O1525   2.016       .  S
Zn1509     O1513   1.909       .  S
Zn1510     O1515   2.163       .  S
Zn1510     O1517   2.216       .  S
Zn1510     O1521   2.086       .  S
Zn1510     O1513   1.948       .  S
Zn1511     O1516   2.047       .  S
Zn1511     O1519   2.012       .  S
Zn1511     O1522   2.016       .  S
Zn1511     O1513   1.916       .  S
Zn1512     O1520   1.995       .  S
Zn1512     O1523   1.978       .  S
Zn1512     O1524   1.989       .  S
Zn1512     O1513   1.889       .  S
O1514      C1526   1.262       .  A
O1515      C1527   1.298       .  A
O1516      C1528   1.277       .  A
O1517      C1526   1.300       .  A
O1518      C1528   1.273       .  A
O1519      C1527   1.276       .  A
O1520      C1529   1.273       .  A
O1521      C1530   1.282       .  A
O1522      C1529   1.275       .  A
O1523      C1530   1.273       .  A
O1524      C1531   1.267       .  A
O1525      C1531   1.275       .  A
C1526      C2225   1.524       .  S
C1527      C1902   1.507       .  S
C1528      C1918   1.478       .  S
C1529      C2161   1.463       .  S
C1530      C1937   1.487       .  S
C1531      C1950   1.482       .  S
Zn1532     O1537   2.023       .  S
Zn1532     O1541   1.986       .  S
Zn1532     O1548   2.021       .  S
Zn1532     O1536   1.910       .  S
Zn1533     O1538   1.991       .  S
Zn1533     O1540   2.029       .  S
Zn1533     O1544   1.985       .  S
Zn1533     O1536   1.922       .  S
Zn1534     O1539   2.151       .  S
Zn1534     O1542   2.135       .  S
Zn1534     O1545   2.049       .  S
Zn1534     O1536   1.936       .  S
Zn1535     O1543   2.004       .  S
Zn1535     O1546   2.015       .  S
Zn1535     O1547   1.984       .  S
Zn1535     O1536   1.918       .  S
O1537      C1549   1.275       .  A
O1538      C1550   1.272       .  A
O1539      C1551   1.296       .  A
O1540      C1549   1.276       .  A
O1541      C1551   1.273       .  A
O1542      C1550   1.291       .  A
O1543      C1552   1.272       .  A
O1544      C1553   1.269       .  A
O1545      C1552   1.277       .  A
O1546      C1553   1.275       .  A
O1547      C1554   1.271       .  A
O1548      C1554   1.274       .  A
C1549      C1921   1.487       .  S
C1550      C2494   1.501       .  S
C1551      C1886   1.514       .  S
C1553      C2049   1.477       .  S
C1554      C2030   1.474       .  S
Zn1555     O1560   2.009       .  S
Zn1555     O1564   1.985       .  S
Zn1555     O1571   2.011       .  S
Zn1555     O1559   1.910       .  S
Zn1556     O1561   2.169       .  S
Zn1556     O1563   2.033       .  S
Zn1556     O1567   2.158       .  S
Zn1556     O1559   1.924       .  S
Zn1557     O1562   2.018       .  S
Zn1557     O1565   1.980       .  S
Zn1557     O1568   2.003       .  S
Zn1557     O1559   1.901       .  S
Zn1558     O1566   2.014       .  S
Zn1558     O1569   1.983       .  S
Zn1558     O1570   1.978       .  S
Zn1558     O1559   1.916       .  S
O1560      C1572   1.273       .  A
O1561      C1573   1.298       .  A
O1562      C1574   1.273       .  A
O1563      C1572   1.277       .  A
O1564      C1574   1.270       .  A
O1565      C1573   1.274       .  A
O1566      C1575   1.274       .  A
O1567      C1576   1.293       .  A
O1568      C1575   1.272       .  A
O1569      C1576   1.270       .  A
O1570      C1577   1.271       .  A
O1571      C1577   1.274       .  A
C1572      C1838   1.489       .  S
C1573      C2398   1.525       .  S
C1574      C1825   1.464   1_545  S
C1575      C1854   1.477       .  S
C1576      C1985   1.508       .  S
C1577      C1870   1.474       .  S
Zn1578     O1583   2.002       .  S
Zn1578     O1587   2.022       .  S
Zn1578     O1594   2.023       .  S
Zn1578     O1582   1.916       .  S
Zn1579     O1584   2.195       .  S
Zn1579     O1586   2.161       .  S
Zn1579     O1590   2.067       .  S
Zn1579     O1582   1.943       .  S
Zn1580     O1585   1.992       .  S
Zn1580     O1588   1.918       .  S
Zn1580     O1591   2.011       .  S
Zn1580     O1582   1.901       .  S
Zn1581     O1589   1.992       .  S
Zn1581     O1592   1.966       .  S
Zn1581     O1593   1.985       .  S
Zn1581     O1582   1.881       .  S
O1583      C1595   1.276       .  A
O1584      C1596   1.298       .  A
O1585      C1597   1.272       .  A
O1586      C1595   1.298       .  A
O1587      C1597   1.273       .  A
O1588      C1596   1.263       .  A
O1589      C1598   1.270   1_545  A
O1590      C1599   1.279       .  A
O1591      C1598   1.272   1_545  A
O1592      C1599   1.272       .  A
O1593      C1600   1.271       .  A
O1594      C1600   1.275       .  A
C1595      C2321   1.507       .  S
C1596      C1905   1.513   1_545  S
C1597      C1857   1.469       .  S
C1598      C1806   1.487       .  S
C1600      C1790   1.463       .  S
Zn1601     O1606   2.154       .  S
Zn1601     O1610   2.190       .  S
Zn1601     O1617   2.077       .  S
Zn1601     O1605   1.939       .  S
Zn1602     O1607   2.040       .  S
Zn1602     O1609   1.997       .  S
Zn1602     O1613   2.015       .  S
Zn1602     O1605   1.917       .  S
Zn1603     O1608   1.913       .  S
Zn1603     O1611   1.971       .  S
Zn1603     O1614   1.993       .  S
Zn1603     O1605   1.894       .  S
Zn1604     O1612   1.998       .  S
Zn1604     O1615   1.982       .  S
Zn1604     O1616   1.971       .  S
Zn1604     O1605   1.894       .  S
O1606      C1618   1.297       .  A
O1607      C1619   1.277       .  A
O1608      C1620   1.263       .  A
O1609      C1618   1.273       .  A
O1610      C1620   1.298       .  A
O1611      C1619   1.266       .  A
O1612      C1621   1.268       .  A
O1613      C1622   1.274       .  A
O1614      C1621   1.269       .  A
O1615      C1622   1.272       .  A
O1616      C1623   1.272       .  A
O1617      C1623   1.281       .  A
C1618      C2273   1.516       .  S
C1619      C1758   1.490       .  S
C1620      C1889   1.506       .  S
C1621      C1822   1.460   1_655  S
C1622      C1745   1.466       .  S
C1623      C1774   1.476       .  S
Zn1624     O1629   1.983       .  S
Zn1624     O1633   1.959       .  S
Zn1624     O1640   2.003       .  S
Zn1624     O1628   1.913       .  S
Zn1625     O1630   2.008       .  S
Zn1625     O1632   2.028       .  S
Zn1625     O1636   1.993       .  S
Zn1625     O1628   1.918       .  S
Zn1626     O1631   2.171       .  S
Zn1626     O1634   2.051       .  S
Zn1626     O1637   2.202       .  S
Zn1626     O1628   1.943       .  S
Zn1627     O1635   1.983       .  S
Zn1627     O1638   2.015       .  S
Zn1627     O1639   2.024       .  S
Zn1627     O1628   1.905       .  S
O1629      C1641   1.271       .  A
O1630      C1642   1.274       .  A
O1631      C1643   1.295       .  A
O1632      C1641   1.274       .  A
O1633      C1643   1.267       .  A
O1634      C1642   1.279       .  A
O1635      C1644   1.270       .  A
O1636      C1645   1.272       .  A
O1637      C1644   1.302       .  A
O1638      C1645   1.272       .  A
O1639      C1646   1.275       .  A
O1640      C1646   1.271       .  A
C1641      C1726   1.487       .  S
C1642      C1777   1.487       .  S
C1643      C2113   1.506       .  S
C1644      C2177   1.527       .  S
C1645      C1809   1.478   1_655  S
Zn1647     O1652   1.966       .  S
Zn1647     O1656   2.005       .  S
Zn1647     O1663   2.015       .  S
Zn1647     O1651   1.898       .  S
Zn1648     O1653   2.160       .  S
Zn1648     O1655   2.184       .  S
Zn1648     O1659   2.043       .  S
Zn1648     O1651   1.946       .  S
Zn1649     O1654   2.003       .  S
Zn1649     O1657   1.948       .  S
Zn1649     O1660   2.002   1_545  S
Zn1649     O1651   1.917       .  S
Zn1650     O1658   1.989       .  S
Zn1650     O1661   1.968       .  S
Zn1650     O1662   1.969       .  S
Zn1650     O1651   1.903       .  S
O1652      C1664   1.266       .  A
O1653      C1665   1.294       .  A
O1654      C1666   1.272       .  A
O1655      C1664   1.300       .  A
O1656      C1666   1.273       .  A
O1657      C1665   1.268       .  A
O1658      C1667   1.268   1_545  A
O1659      C1668   1.276       .  A
O1660      C1667   1.272       .  A
O1661      C1668   1.265       .  A
O1662      C1669   1.270       .  A
O1663      C1669   1.273       .  A
C1664      C2209   1.528       .  S
C1665      C2065   1.506   1_545  S
C1666      C1710   1.465       .  S
C1667      C1742   1.466       .  S
C1668      C1694   1.489       .  S
C1669      C1873   1.468   1_655  S
Zn1670     O1675   2.020       .  S
Zn1670     O1679   2.164       .  S
Zn1670     O1686   2.162       .  S
Zn1670     O1674   1.924       .  S
Zn1671     O1676   1.974       .  S
Zn1671     O1678   1.994       .  S
Zn1671     O1682   2.018       .  S
Zn1671     O1674   1.912       .  S
Zn1672     O1677   2.005       .  S
Zn1672     O1680   2.041       .  S
Zn1672     O1683   2.030       .  S
Zn1672     O1674   1.903       .  S
Zn1673     O1681   2.013       .  S
Zn1673     O1684   1.983       .  S
Zn1673     O1685   1.981       .  S
Zn1673     O1674   1.906       .  S
O1675      C1687   1.274       .  A
O1676      C1688   1.270   1_545  A
O1677      C1689   1.277       .  A
O1678      C1687   1.272       .  A
O1679      C1689   1.298       .  A
O1680      C1688   1.277   1_545  A
O1681      C1690   1.274       .  A
O1682      C1691   1.275       .  A
O1683      C1690   1.277       .  A
O1684      C1691   1.269       .  A
O1685      C1692   1.271       .  A
O1686      C1692   1.293       .  A
C1687      C1713   1.475       .  S
C1688      C1729   1.476       .  S
C1689      C2465   1.531       .  S
C1691      C1793   1.476   1_655  S
C1692      C1966   1.517       .  S
C1693      C1694   1.410       .  A
C1693      C1698   1.407       .  A
C1693      H1700   1.083       .  S
C1694      C1695   1.429       .  A
C1695      C1696   1.403       .  A
C1695      C1702   1.524       .  S
C1696      C1697   1.396       .  A
C1696      H1701   1.084       .  S
C1697      C1698   1.409       .  A
C1699      F1704   1.383       .  S
C1699      F1705   1.383       .  S
C1702      F1706   1.384       .  S
C1702      F1707   1.384       .  S
C1702      F1708   1.385       .  S
C1709      C1710   1.399       .  A
C1709      C1714   1.403       .  A
C1709      H1716   1.084       .  S
C1710      C1711   1.413       .  A
C1711      C1712   1.404       .  A
C1711      C1718   1.518       .  S
C1712      C1713   1.404       .  A
C1712      H1717   1.083       .  S
C1713      C1714   1.419       .  A
C1714      C1715   1.518       .  S
C1715      F1719   1.385   1_545  S
C1715      F1720   1.383       .  S
C1715      F1721   1.384   1_545  S
C1718      F1722   1.382       .  S
C1718      F1723   1.383       .  S
C1718      F1724   1.385       .  S
C1725      C1726   1.409       .  A
C1725      C1730   1.405       .  A
C1725      H1732   1.083       .  S
C1726      C1727   1.421       .  A
C1727      C1728   1.405       .  A
C1727      C1734   1.521       .  S
C1728      C1729   1.404       .  A
C1728      H1733   1.084       .  S
C1729      C1730   1.413       .  A
C1730      C1731   1.519       .  S
C1731      F1735   1.384       .  S
C1731      F1736   1.382       .  S
C1731      F1737   1.385       .  S
C1734      F1738   1.383       .  S
C1734      F1739   1.383       .  S
C1734      F1740   1.385       .  S
C1741      C1742   1.405       .  A
C1741      C1746   1.407       .  A
C1741      H1748   1.084       .  S
C1742      C1743   1.415       .  A
C1743      C1744   1.399       .  A
C1743      C1750   1.522       .  S
C1744      C1745   1.402       .  A
C1744      H1749   1.084       .  S
C1745      C1746   1.411       .  A
C1746      C1747   1.516       .  S
C1747      F1751   1.384       .  S
C1747      F1752   1.383       .  S
C1747      F1753   1.383       .  S
C1750      F1754   1.383       .  S
C1750      F1755   1.383   1_565  S
C1750      F1756   1.384       .  S
C1757      C1758   1.409       .  A
C1757      C1762   1.411       .  A
C1757      H1764   1.082       .  S
C1758      C1759   1.426       .  A
C1759      C1760   1.400       .  A
C1759      C1766   1.525       .  S
C1760      C1761   1.399       .  A
C1760      H1765   1.083       .  S
C1761      C1762   1.417       .  A
C1763      F1767   1.385       .  S
C1763      F1768   1.382       .  S
C1763      F1769   1.382       .  S
C1766      F1770   1.384       .  S
C1766      F1771   1.384       .  S
C1766      F1772   1.385       .  S
C1773      C1774   1.401       .  A
C1773      C1778   1.405       .  A
C1773      H1780   1.084       .  S
C1774      C1775   1.413       .  A
C1775      C1776   1.412       .  A
C1775      C1782   1.517       .  S
C1776      C1777   1.408       .  A
C1776      H1781   1.083       .  S
C1777      C1778   1.421       .  A
C1778      C1779   1.520       .  S
C1779      F1783   1.385   1_655  S
C1779      F1784   1.383       .  S
C1779      F1785   1.384       .  S
C1782      F1786   1.383       .  S
C1782      F1787   1.383       .  S
C1782      F1788   1.384       .  S
C1789      C1790   1.396       .  A
C1789      C1794   1.406       .  A
C1789      H1796   1.084       .  S
C1790      C1791   1.414       .  A
C1791      C1792   1.399       .  A
C1791      C1798   1.518       .  S
C1792      C1793   1.402       .  A
C1792      H1797   1.084       .  S
C1793      C1794   1.423       .  A
C1794      C1795   1.518       .  S
C1795      F1799   1.384       .  S
C1795      F1800   1.383       .  S
C1795      F1801   1.381       .  S
C1798      F1802   1.383       .  S
C1798      F1803   1.381       .  S
C1798      F1804   1.385       .  S
C1805      C1806   1.408       .  A
C1805      C1810   1.405       .  A
C1805      H1812   1.082       .  S
C1806      C1807   1.421       .  A
C1807      C1808   1.405       .  A
C1807      C1814   1.520       .  S
C1808      C1809   1.403       .  A
C1808      H1813   1.083       .  S
C1809      C1810   1.417       .  A
C1810      C1811   1.521       .  S
C1811      F1815   1.383   1_455  S
C1811      F1816   1.383       .  S
C1811      F1817   1.385       .  S
C1814      F1818   1.382       .  S
C1814      F1819   1.384       .  S
C1814      F1820   1.385       .  S
C1821      C1822   1.397       .  A
C1821      C1826   1.400       .  A
C1821      H1828   1.084   1_455  S
C1822      C1823   1.414       .  A
C1823      C1824   1.406       .  A
C1823      C1830   1.518       .  S
C1824      C1825   1.401       .  A
C1824      H1829   1.084       .  S
C1825      C1826   1.416       .  A
C1826      C1827   1.519       .  S
C1827      F1831   1.384       .  S
C1827      F1832   1.383   1_565  S
C1827      F1833   1.382   1_565  S
C1830      F1834   1.384       .  S
C1830      F1835   1.383       .  S
C1830      F1836   1.385       .  S
C1837      C1838   1.405       .  A
C1837      C1842   1.408       .  A
C1837      H1844   1.082       .  S
C1838      C1839   1.420       .  A
C1839      C1840   1.408       .  A
C1839      C1846   1.519       .  S
C1840      C1841   1.405       .  A
C1840      H1845   1.084       .  S
C1841      C1842   1.418       .  A
C1842      C1843   1.513       .  S
C1843      F1847   1.385       .  S
C1846      F1850   1.384   1_545  S
C1846      F1851   1.383       .  S
C1846      F1852   1.385   1_545  S
C1853      C1854   1.406       .  A
C1853      C1858   1.408       .  A
C1853      H1860   1.083       .  S
C1854      C1855   1.419       .  A
C1855      C1856   1.401       .  A
C1855      C1862   1.521       .  S
C1856      C1857   1.400       .  A
C1856      H1861   1.084       .  S
C1857      C1858   1.413       .  A
C1858      C1859   1.517       .  S
C1859      F1863   1.384       .  S
C1859      F1864   1.382       .  S
C1859      F1865   1.383       .  S
C1862      F1866   1.382       .  S
C1862      F1867   1.384       .  S
C1862      F1868   1.385       .  S
C1869      C1870   1.407       .  A
C1869      C1874   1.403       .  A
C1869      H1876   1.083       .  S
C1870      C1871   1.417       .  A
C1871      C1872   1.400       .  A
C1871      C1878   1.520       .  S
C1872      C1873   1.402       .  A
C1872      H1877   1.084       .  S
C1873      C1874   1.414       .  A
C1874      C1875   1.519       .  S
C1875      F1879   1.385       .  S
C1875      F1880   1.383       .  S
C1875      F1881   1.383   1_455  S
C1878      F1882   1.383       .  S
C1878      F1883   1.383       .  S
C1878      F1884   1.385       .  S
C1885      C1886   1.419       .  A
C1885      C1890   1.419       .  A
C1885      H1892   1.080       .  S
C1886      C1887   1.417       .  A
C1887      C1888   1.417       .  A
C1887      C1894   1.518       .  S
C1888      C1889   1.417   1_455  A
C1888      H1893   1.083   1_455  S
C1889      C1890   1.413   1_655  A
C1890      C1891   1.516       .  S
C1891      F1895   1.384       .  S
C1891      F1896   1.383       .  S
C1891      F1897   1.383   1_455  S
C1894      F1898   1.383       .  S
C1894      F1899   1.383       .  S
C1894      F1900   1.385       .  S
C1901      C1902   1.414       .  A
C1901      C1906   1.426       .  A
C1901      H1908   1.079       .  S
C1902      C1903   1.412       .  A
C1903      C1904   1.414       .  A
C1903      C1910   1.517       .  S
C1904      C1905   1.417       .  A
C1904      H1909   1.083       .  S
C1905      C1906   1.420       .  A
C1906      C1907   1.516       .  S
C1907      F1911   1.385       .  S
C1907      F1912   1.383       .  S
C1907      F1913   1.384       .  S
C1910      F1914   1.383       .  S
C1910      F1915   1.383       .  S
C1910      F1916   1.385       .  S
C1917      C1918   1.401       .  A
C1917      C1922   1.405       .  A
C1917      H1924   1.084       .  S
C1918      C1919   1.414       .  A
C1919      C1920   1.413       .  A
C1919      C1926   1.515       .  S
C1920      C1921   1.408       .  A
C1920      H1925   1.083       .  S
C1921      C1922   1.420       .  A
C1922      C1923   1.519       .  S
C1923      F1927   1.385       .  S
C1923      F1928   1.384       .  S
C1923      F1929   1.382       .  S
C1926      F1930   1.383       .  S
C1926      F1931   1.383       .  S
C1926      F1932   1.384       .  S
C1933      C1934   1.409       .  A
C1933      C1938   1.413       .  A
C1933      H1940   1.082       .  S
C1934      C1935   1.423       .  A
C1935      C1936   1.406       .  A
C1935      C1942   1.521       .  S
C1936      C1937   1.402       .  A
C1936      H1941   1.084       .  S
C1937      C1938   1.416       .  A
C1938      C1939   1.515       .  S
C1939      F1943   1.385       .  S
C1939      F1944   1.379       .  S
C1939      F1945   1.382       .  S
C1942      F1946   1.383       .  S
C1942      F1948   1.385       .  S
C1949      C1950   1.405       .  A
C1949      C1954   1.401       .  A
C1949      H1956   1.085       .  S
C1950      C1951   1.424       .  A
C1951      C1952   1.406       .  A
C1951      C1958   1.521       .  S
C1952      C1953   1.400       .  A
C1952      H1957   1.083       .  S
C1953      C1954   1.414       .  A
C1954      C1955   1.517       .  S
C1955      F1959   1.384       .  S
C1955      F1960   1.382       .  S
C1955      F1961   1.383       .  S
C1958      F1962   1.384       .  S
C1958      F1963   1.383       .  S
C1958      F1964   1.385       .  S
C1965      C1966   1.416   1_455  A
C1965      C1970   1.419       .  A
C1965      H1972   1.082       .  S
C1966      C1967   1.414       .  A
C1967      C1968   1.426   1_655  A
C1967      C1974   1.514       .  S
C1968      C1969   1.421       .  A
C1968      H1973   1.082       .  S
C1969      C1970   1.418       .  A
C1970      C1971   1.518       .  S
C1971      F1975   1.385       .  S
C1971      F1976   1.383       .  S
C1971      F1977   1.382       .  S
C1974      F1978   1.383       .  S
C1974      F1979   1.383       .  S
C1974      F1980   1.384       .  S
C1981      C1982   1.417       .  A
C1981      C1986   1.417       .  A
C1981      H1988   1.080       .  S
C1982      C1983   1.424       .  A
C1983      C1984   1.428       .  A
C1983      C1990   1.515       .  S
C1984      C1985   1.413       .  A
C1984      H1989   1.083       .  S
C1985      C1986   1.416       .  A
C1986      C1987   1.519       .  S
C1987      F1991   1.385       .  S
C1987      F1992   1.382       .  S
C1987      F1993   1.383       .  S
C1990      F1994   1.382       .  S
C1990      F1995   1.384       .  S
C1990      F1996   1.384       .  S
C1997      C1998   1.404       .  A
C1997      C2002   1.405       .  A
C1997      H2004   1.083       .  S
C1998      C1999   1.420       .  A
C1999      C2000   1.405       .  A
C1999      C2006   1.520       .  S
C2000      C2001   1.400       .  A
C2000      H2005   1.084       .  S
C2001      C2002   1.412       .  A
C2002      C2003   1.516       .  S
C2003      F2007   1.383       .  S
C2003      F2008   1.382       .  S
C2003      F2009   1.383       .  S
C2006      F2010   1.382       .  S
C2006      F2011   1.384       .  S
C2006      F2012   1.385       .  S
C2013      C2014   1.403       .  A
C2013      C2018   1.407       .  A
C2013      H2020   1.083       .  S
C2014      C2015   1.417       .  A
C2015      C2016   1.405       .  A
C2015      C2022   1.518       .  S
C2016      C2017   1.402       .  A
C2016      H2021   1.084       .  S
C2017      C2018   1.417       .  A
C2018      C2019   1.518       .  S
C2019      F2023   1.385       .  S
C2019      F2024   1.383       .  S
C2019      F2025   1.382       .  S
C2022      F2026   1.384       .  S
C2022      F2027   1.382       .  S
C2022      F2028   1.385       .  S
C2029      C2030   1.403       .  A
C2029      C2034   1.405       .  A
C2029      H2036   1.083       .  S
C2030      C2031   1.414       .  A
C2031      C2032   1.403       .  A
C2031      C2038   1.520       .  S
C2032      C2033   1.409       .  A
C2032      H2037   1.082       .  S
C2033      C2034   1.422       .  A
C2034      C2035   1.520       .  S
C2035      F2039   1.385       .  S
C2035      F2040   1.383       .  S
C2035      F2041   1.383       .  S
C2038      F2042   1.383       .  S
C2038      F2043   1.383       .  S
C2038      F2044   1.384       .  S
C2045      C2046   1.400       .  A
C2045      C2050   1.404       .  A
C2045      H2052   1.083       .  S
C2046      C2047   1.416       .  A
C2047      C2048   1.402       .  A
C2047      C2054   1.521       .  S
C2048      C2049   1.404       .  A
C2048      H2053   1.083       .  S
C2049      C2050   1.421       .  A
C2050      C2051   1.521       .  S
C2051      F2055   1.385       .  S
C2051      F2056   1.382       .  S
C2051      F2057   1.383       .  S
C2054      F2058   1.383       .  S
C2054      F2059   1.383       .  S
C2054      F2060   1.384       .  S
C2061      C2062   1.423       .  A
C2061      C2066   1.422       .  A
C2061      H2068   1.082       .  S
C2062      C2063   1.419       .  A
C2063      C2064   1.415       .  A
C2063      C2070   1.519       .  S
C2064      C2065   1.414       .  A
C2064      H2069   1.083       .  S
C2065      C2066   1.409       .  A
C2066      C2067   1.514   1_565  S
C2067      F2071   1.384   1_545  S
C2067      F2072   1.383       .  S
C2067      F2073   1.383       .  S
C2070      F2074   1.383       .  S
C2070      F2075   1.383       .  S
C2070      F2076   1.384       .  S
C2077      C2078   1.402       .  A
C2077      C2082   1.407       .  A
C2077      H2084   1.084       .  S
C2078      C2079   1.410       .  A
C2079      C2080   1.402       .  A
C2079      C2086   1.521       .  S
C2080      C2081   1.409       .  A
C2080      H2085   1.084       .  S
C2081      C2082   1.417       .  A
C2082      C2083   1.517       .  S
C2083      F2087   1.384       .  S
C2083      F2088   1.382       .  S
C2083      F2089   1.384       .  S
C2086      F2090   1.383       .  S
C2086      F2091   1.383       .  S
C2086      F2092   1.384       .  S
C2093      C2094   1.407       .  A
C2093      C2098   1.404       .  A
C2093      H2100   1.084       .  S
C2094      C2095   1.415       .  A
C2095      C2096   1.407       .  A
C2095      C2102   1.517       .  S
C2096      C2097   1.404       .  A
C2096      H2101   1.083       .  S
C2097      C2098   1.411       .  A
C2098      C2099   1.520       .  S
C2099      F2103   1.385       .  S
C2099      F2104   1.382       .  S
C2099      F2105   1.384       .  S
C2102      F2106   1.383       .  S
C2102      F2107   1.383       .  S
C2102      F2108   1.385       .  S
C2109      C2110   1.420       .  A
C2109      C2114   1.417       .  A
C2109      H2116   1.082       .  S
C2110      C2111   1.424       .  A
C2111      C2112   1.428       .  A
C2111      C2118   1.515       .  S
C2112      C2113   1.413       .  A
C2112      H2117   1.083       .  S
C2113      C2114   1.414       .  A
C2114      C2115   1.519       .  S
C2115      F2119   1.385       .  S
C2115      F2120   1.383       .  S
C2115      F2121   1.383       .  S
C2118      F2122   1.383       .  S
C2118      F2123   1.383       .  S
C2118      F2124   1.385       .  S
C2125      C2126   1.401       .  A
C2125      C2130   1.405       .  A
C2125      H2132   1.083       .  S
C2126      C2127   1.415       .  A
C2127      C2128   1.408       .  A
C2127      C2134   1.519       .  S
C2128      C2129   1.405       .  A
C2128      H2133   1.083       .  S
C2129      C2130   1.421       .  A
C2130      C2131   1.521       .  S
C2131      F2135   1.385       .  S
C2131      F2136   1.383       .  S
C2131      F2137   1.383       .  S
C2134      F2138   1.383       .  S
C2134      F2139   1.382       .  S
C2134      F2140   1.384       .  S
C2141      C2142   1.403       .  A
C2141      C2146   1.405       .  A
C2141      H2148   1.083       .  S
C2142      C2143   1.417       .  A
C2143      C2144   1.405       .  A
C2143      C2150   1.519       .  S
C2144      C2145   1.403       .  A
C2144      H2149   1.083       .  S
C2145      C2146   1.416       .  A
C2146      C2147   1.519       .  S
C2147      F2151   1.385       .  S
C2147      F2152   1.383       .  S
C2147      F2153   1.384       .  S
C2150      F2154   1.383       .  S
C2150      F2155   1.383       .  S
C2150      F2156   1.385       .  S
C2157      C2158   1.402       .  A
C2157      C2162   1.399       .  A
C2157      H2164   1.083       .  S
C2158      C2159   1.422       .  A
C2159      C2160   1.407       .  A
C2159      C2166   1.518       .  S
C2160      C2161   1.397       .  A
C2160      H2165   1.083       .  S
C2161      C2162   1.413       .  A
C2162      C2163   1.519       .  S
C2163      F2167   1.381       .  S
C2163      F2168   1.383       .  S
C2163      F2169   1.385       .  S
C2166      F2170   1.381       .  S
C2166      F2171   1.383       .  S
C2166      F2172   1.385       .  S
C2173      C2174   1.401       .  A
C2173      C2178   1.416       .  A
C2173      H2180   1.083       .  S
C2174      C2175   1.427       .  A
C2175      C2176   1.429       .  A
C2175      C2182   1.515       .  S
C2176      C2177   1.409       .  A
C2176      H2181   1.083       .  S
C2177      C2178   1.438       .  A
C2178      C2179   1.525       .  S
C2179      F2183   1.385       .  S
C2179      F2184   1.383       .  S
C2179      F2185   1.382       .  S
C2182      F2186   1.381       .  S
C2182      F2188   1.381       .  S
C2189      C2190   1.418       .  A
C2189      C2194   1.415       .  A
C2189      H2196   1.082   1_455  S
C2190      C2191   1.423       .  A
C2191      C2192   1.426       .  A
C2192      C2193   1.413       .  A
C2192      H2197   1.083       .  S
C2193      C2194   1.412       .  A
C2194      C2195   1.518       .  S
C2195      F2199   1.384   1_455  S
C2195      F2200   1.383       .  S
C2195      F2201   1.382       .  S
C2198      F2202   1.383       .  S
C2198      F2203   1.382       .  S
C2198      F2204   1.385       .  S
C2205      C2206   1.396       .  A
C2205      C2210   1.420       .  A
C2205      H2212   1.083       .  S
C2206      C2207   1.429       .  A
C2207      C2208   1.417       .  A
C2207      C2214   1.512       .  S
C2208      C2209   1.403       .  A
C2208      H2213   1.084       .  S
C2209      C2210   1.446       .  A
C2210      C2211   1.525       .  S
C2211      F2215   1.385   1_655  S
C2211      F2216   1.383       .  S
C2211      F2217   1.384       .  S
C2214      F2218   1.380       .  S
C2214      F2219   1.374       .  S
C2214      F2220   1.384       .  S
C2221      C2222   1.424       .  A
C2221      C2226   1.426       .  A
C2221      H2228   1.081   1_455  S
C2222      C2223   1.417       .  A
C2223      C2224   1.417       .  A
C2223      C2230   1.519       .  S
C2224      C2225   1.421       .  A
C2224      H2229   1.082       .  S
C2225      C2226   1.416       .  A
C2226      C2227   1.515       .  S
C2227      F2231   1.385   1_455  S
C2227      F2232   1.383       .  S
C2227      F2233   1.383       .  S
C2230      F2234   1.383       .  S
C2230      F2235   1.383       .  S
C2230      F2236   1.385       .  S
C2237      C2238   1.407       .  A
C2237      C2242   1.408       .  A
C2237      H2244   1.083       .  S
C2238      C2239   1.424       .  A
C2239      C2240   1.408       .  A
C2239      C2246   1.520       .  S
C2240      C2241   1.399       .  A
C2240      H2245   1.083       .  S
C2241      C2242   1.413       .  A
C2242      C2243   1.519       .  S
C2243      F2247   1.384       .  S
C2243      F2248   1.383       .  S
C2243      F2249   1.384       .  S
C2246      F2250   1.383   1_655  S
C2246      F2251   1.382       .  S
C2246      F2252   1.385   1_655  S
C2253      C2254   1.405       .  A
C2253      C2258   1.411       .  A
C2253      H2260   1.084       .  S
C2254      C2255   1.417       .  A
C2255      C2256   1.401       .  A
C2255      C2262   1.519       .  S
C2256      C2257   1.401       .  A
C2256      H2261   1.084       .  S
C2257      C2258   1.416       .  A
C2258      C2259   1.517       .  S
C2259      F2263   1.385       .  S
C2259      F2264   1.384       .  S
C2259      F2265   1.382       .  S
C2262      F2266   1.383       .  S
C2262      F2267   1.382       .  S
C2262      F2268   1.384   1_655  S
C2269      C2270   1.401       .  A
C2269      C2274   1.423       .  A
C2269      H2276   1.082       .  S
C2270      C2271   1.429       .  A
C2271      C2272   1.413       .  A
C2271      C2278   1.516       .  S
C2272      C2273   1.400       .  A
C2272      H2277   1.084       .  S
C2273      C2274   1.437       .  A
C2274      C2275   1.522       .  S
C2275      F2279   1.385       .  S
C2275      F2280   1.383       .  S
C2275      F2281   1.383       .  S
C2278      F2282   1.382       .  S
C2278      F2283   1.380       .  S
C2278      F2284   1.384       .  S
C2285      C2286   1.423       .  A
C2285      C2290   1.421       .  A
C2285      H2292   1.082       .  S
C2286      C2287   1.422       .  A
C2287      C2288   1.420       .  A
C2287      C2294   1.518       .  S
C2288      C2289   1.413       .  A
C2288      H2293   1.083       .  S
C2289      C2290   1.411       .  A
C2290      C2291   1.516       .  S
C2291      F2295   1.385       .  S
C2291      F2296   1.384       .  S
C2291      F2297   1.383       .  S
C2294      F2298   1.383       .  S
C2294      F2299   1.383       .  S
C2294      F2300   1.385       .  S
C2301      C2302   1.406       .  A
C2301      C2306   1.407       .  A
C2301      H2308   1.083       .  S
C2302      C2303   1.413       .  A
C2303      C2304   1.397       .  A
C2303      C2310   1.522       .  S
C2304      C2305   1.406       .  A
C2304      H2309   1.083       .  S
C2305      C2306   1.416       .  A
C2306      C2307   1.518       .  S
C2307      F2311   1.384       .  S
C2307      F2312   1.382       .  S
C2307      F2313   1.384       .  S
C2310      F2314   1.383       .  S
C2310      F2315   1.383       .  S
C2310      F2316   1.385       .  S
C2317      C2318   1.409       .  A
C2317      C2322   1.419       .  A
C2317      H2324   1.079       .  S
C2318      C2319   1.420       .  A
C2319      C2320   1.421       .  A
C2320      C2321   1.408       .  A
C2320      H2325   1.062       .  S
C2321      C2322   1.422       .  A
C2322      C2323   1.519       .  S
C2323      F2327   1.385       .  S
C2323      F2328   1.383       .  S
C2323      F2329   1.382       .  S
C2326      F2330   1.383       .  S
C2326      F2331   1.384       .  S
C2326      F2332   1.384       .  S
C2333      C2334   1.400   1_554  A
C2333      C2338   1.406       .  A
C2333      H2340   1.084       .  S
C2335      C2336   1.396       .  A
C2335      C2342   1.519       .  S
C2336      C2337   1.397       .  A
C2336      H2341   1.084       .  S
C2338      C2339   1.521       .  S
C2339      F2343   1.385       .  S
C2339      F2344   1.384       .  S
C2339      F2345   1.383       .  S
C2342      F2346   1.380       .  S
C2342      F2347   1.383       .  S
C2342      F2348   1.385       .  S
C2349      C2350   1.423       .  A
C2349      C2354   1.421       .  A
C2349      H2356   1.077       .  S
C2350      C2351   1.420       .  A
C2351      C2352   1.419       .  A
C2352      C2353   1.415       .  A
C2352      H2357   1.078       .  S
C2353      C2354   1.410       .  A
C2354      C2355   1.515       .  S
C2355      F2359   1.383       .  S
C2355      F2360   1.383       .  S
C2355      F2361   1.383       .  S
C2358      F2362   1.383       .  S
C2358      F2363   1.382       .  S
C2358      F2364   1.385       .  S
C2365      C2366   1.405       .  A
C2365      C2370   1.408       .  A
C2365      H2372   1.083       .  S
C2366      C2367   1.416       .  A
C2367      C2368   1.406       .  A
C2367      C2374   1.519       .  S
C2368      C2369   1.401       .  A
C2368      H2373   1.084       .  S
C2369      C2370   1.412       .  A
C2370      C2371   1.517       .  S
C2371      F2375   1.385       .  S
C2371      F2376   1.383       .  S
C2371      F2377   1.383       .  S
C2374      F2378   1.384       .  S
C2374      F2379   1.382       .  S
C2374      F2380   1.385       .  S
C2381      C2382   1.402       .  A
C2381      C2386   1.407       .  A
C2381      H2388   1.084       .  S
C2382      C2383   1.414       .  A
C2383      C2384   1.411       .  A
C2383      C2390   1.517       .  S
C2384      C2385   1.408       .  A
C2384      H2389   1.083       .  S
C2385      C2386   1.423       .  A
C2386      C2387   1.521       .  S
C2387      F2391   1.385       .  S
C2387      F2392   1.382       .  S
C2387      F2393   1.384       .  S
C2390      F2394   1.383       .  S
C2390      F2395   1.383       .  S
C2390      F2396   1.384       .  S
C2397      C2398   1.422       .  A
C2397      C2402   1.414       .  A
C2397      H2404   1.081       .  S
C2398      C2399   1.422       .  A
C2399      C2400   1.423       .  A
C2399      C2406   1.516       .  S
C2400      C2401   1.411       .  A
C2400      H2405   1.082       .  S
C2401      C2402   1.409       .  A
C2402      C2403   1.518   1_545  S
C2403      F2407   1.385       .  S
C2403      F2408   1.384       .  S
C2403      F2409   1.383   1_565  S
C2406      F2410   1.384       .  S
C2406      F2411   1.382       .  S
C2406      F2412   1.385       .  S
C2413      C2414   1.398       .  A
C2413      C2418   1.405       .  A
C2413      H2420   1.084       .  S
C2414      C2415   1.414       .  A
C2415      C2416   1.403       .  A
C2415      C2422   1.520       .  S
C2416      C2417   1.404       .  A
C2416      H2421   1.080       .  S
C2417      C2418   1.424       .  A
C2418      C2419   1.521       .  S
C2419      F2423   1.385       .  S
C2419      F2424   1.383       .  S
C2419      F2425   1.384       .  S
C2422      F2426   1.384       .  S
C2422      F2427   1.382       .  S
C2422      F2428   1.385       .  S
C2429      C2430   1.421       .  A
C2429      C2434   1.427       .  A
C2429      H2436   1.083       .  S
C2430      C2431   1.417       .  A
C2431      C2432   1.414       .  A
C2431      C2438   1.519       .  S
C2432      C2433   1.415       .  A
C2432      H2437   1.082       .  S
C2433      C2434   1.415       .  A
C2434      C2435   1.514       .  S
C2435      F2439   1.385       .  S
C2435      F2440   1.383       .  S
C2435      F2441   1.383       .  S
C2438      F2442   1.383       .  S
C2438      F2443   1.382       .  S
C2438      F2444   1.384       .  S
C2445      C2446   1.408       .  A
C2445      C2450   1.406       .  A
C2445      H2452   1.083       .  S
C2446      C2447   1.420       .  A
C2447      C2448   1.403       .  A
C2447      C2454   1.519       .  S
C2448      C2449   1.403       .  A
C2448      H2453   1.084       .  S
C2449      C2450   1.415       .  A
C2450      C2451   1.519       .  S
C2451      F2455   1.385       .  S
C2451      F2456   1.384       .  S
C2451      F2457   1.383       .  S
C2454      F2458   1.383       .  S
C2454      F2459   1.381       .  S
C2454      F2460   1.385       .  S
C2461      C2462   1.411       .  A
C2461      C2466   1.424       .  A
C2461      H2468   1.083       .  S
C2462      C2463   1.408       .  A
C2463      C2464   1.418       .  A
C2463      C2470   1.516   1_545  S
C2464      C2465   1.425       .  A
C2464      H2469   1.081       .  S
C2465      C2466   1.425       .  A
C2466      C2467   1.517       .  S
C2467      F2472   1.382       .  S
C2467      F2473   1.384       .  S
C2470      F2474   1.383       .  S
C2470      F2475   1.384       .  S
C2470      F2476   1.384       .  S
C2477      C2478   1.402       .  A
C2477      C2482   1.409       .  A
C2477      H2484   1.083       .  S
C2479      C2480   1.402       .  A
C2479      C2486   1.518       .  S
C2480      C2481   1.406       .  A
C2480      H2485   1.084       .  S
C2482      C2483   1.522       .  S
C2483      F2487   1.385       .  S
C2483      F2488   1.383       .  S
C2483      F2489   1.383       .  S
C2486      F2490   1.383       .  S
C2486      F2491   1.384       .  S
C2486      F2492   1.385       .  S
C2493      C2494   1.411       .  A
C2493      C2498   1.423       .  A
C2493      H2500   1.083       .  S
C2494      C2495   1.409       .  A
C2495      C2496   1.417       .  A
C2495      C2502   1.516       .  S
C2496      C2497   1.423       .  A
C2496      H2501   1.081   1_565  S
C2497      C2498   1.425       .  A
C2498      C2499   1.517   1_556  S
C2499      F2503   1.385       .  S
C2499      F2504   1.384       .  S
C2499      F2505   1.382   1_554  S
C2502      F2506   1.384       .  S
C2502      F2507   1.383       .  S
C2502      F2508   1.385   1_565  S
C2509      C2510   1.401       .  A
C2509      C2514   1.406       .  A
C2509      H2516   1.083       .  S
C2510      C2511   1.415       .  A
C2511      C2512   1.405       .  A
C2511      C2518   1.519       .  S
C2512      C2513   1.404       .  A
C2512      H2517   1.083       .  S
C2513      C2514   1.420       .  A
C2514      C2515   1.519   1_545  S
C2515      F2519   1.385       .  S
C2515      F2520   1.383   1_565  S
C2515      F2521   1.383       .  S
C2518      F2522   1.383       .  S
C2518      F2523   1.382       .  S
C2518      F2524   1.385       .  S
C2525      C2526   1.403       .  A
C2525      C2530   1.403       .  A
C2525      H2532   1.084       .  S
C2526      C2527   1.418       .  A
C2527      C2528   1.407       .  A
C2527      C2534   1.519       .  S
C2528      C2529   1.402       .  A
C2528      H2533   1.084       .  S
C2529      C2530   1.416       .  A
C2530      C2531   1.519       .  S
C2531      F2535   1.385   1_545  S
C2531      F2536   1.382   1_545  S
C2531      F2537   1.381       .  S
C2534      F2538   1.382       .  S
C2534      F2539   1.383       .  S
C2534      F2540   1.385       .  S
C2541      C2542   1.402       .  A
C2541      C2546   1.406       .  A
C2541      H2548   1.084       .  S
C2543      C2544   1.404       .  A
C2543      C2550   1.524       .  S
C2544      C2545   1.406   1_554  A
C2544      H2549   1.083       .  S
C2546      C2547   1.518       .  S
C2547      F2551   1.383       .  S
C2547      F2552   1.383       .  S
C2550      F2555   1.384       .  S
C2550      F2556   1.385       .  S
