geometry optimzed in LAMMPS
_audit_creation_date              2020-12-01 
_audit_creation_method            'lammps2cif' 
_symmetry_space_group_name_H-M    'P1' 
_symmetry_Int_Tables_number       1 
_symmetry_cell_setting            triclinic 
loop_ 
_symmetry_equiv_pos_as_xyz 
  x,y,z 
_cell_length_a                    33.11459384 
_cell_length_b                    33.12781845539282 
_cell_length_c                    96.24043671537453 
_cell_angle_alpha                 90.14297436310544 
_cell_angle_beta                  89.95219955225119 
_cell_angle_gamma                 119.95974143892381 
loop_ 
_atom_site_label 
_atom_site_type_symbol 
_atom_site_fract_x 
_atom_site_fract_y 
_atom_site_fract_z 
_atom_site_charge 
Zr1        Zr  0.03532281  0.34190344  0.98346185     2.17500
O2          O  0.96006631  0.33555904  0.98868967    -0.50600
O3          O  0.00715844  0.29225039  0.00397859    -0.73800
O4          O  0.97152640  0.28906742  0.96848044    -0.80600
O5          O  0.09757244  0.46224019  0.00060561    -0.82400
O6          O  0.99659975  0.24733290  0.95624443    -0.78000
O7          O  0.02682939  0.40336474  0.99362197    -0.89600
O8          O  0.06128070  0.27431229  0.01113906    -0.75600
O9          O  0.05795628  0.28536002  0.97910421    -0.85100
O10         O  0.09933105  0.36279140  0.99895212    -0.84800
O11         O  0.05567764  0.35162738  0.95911915    -0.71500
O12         O  0.09350359  0.42063886  0.97796907    -0.83600
Zr13       Zr  0.20105101  0.39225426  0.96382842     2.26400
Zr14       Zr  0.08042785  0.29562496  0.95511704     2.06300
Zr15       Zr  0.15818861  0.44109366  0.99318460     2.10000
Zr16       Zr  0.12301991  0.30690506  0.99399210     1.78800
O17         O  0.19773161  0.52579028  0.99238570    -0.92500
O18         O  0.09006865  0.22264507  0.99300777    -0.40300
O19         O  0.18136166  0.38451038  0.98805208    -0.76900
O20         O  0.14522990  0.31352327  0.96988009    -0.95600
O21         O  0.13713588  0.37356663  0.94903516    -0.88900
O22         O  0.17961669  0.44959364  0.96912679    -0.91700
C23         C  0.02234866  0.27335453  0.01257697     1.02000
C24         C  0.05240396  0.44271572  0.99948125     1.15000
C25         C  0.96486792  0.25612933  0.96016363     1.05700
O26         O  0.07673555  0.22044888  0.95659010    -0.93900
O27         O  0.13228071  0.29780741  0.93695258    -0.89600
O28         O  0.20517863  0.35643844  0.94220330    -0.82800
C29         C  0.17585187  0.32342334  0.93433972     1.12400
O30         O  0.04901342  0.44179480  0.95094201    -0.95900
Zr31       Zr  0.11547399  0.43020802  0.95406221     1.88900
O32         O  0.23878735  0.45629326  0.94759305    -0.72500
O33         O  0.04395418  0.27528643  0.93217906    -0.51800
O34         O  0.08840013  0.41764711  0.93008104    -0.96400
O35         O  0.13747434  0.51141172  0.95790131    -0.53700
O36         O  0.18518556  0.47444044  0.93996972    -0.73000
C37         C  0.22642628  0.47993995  0.93994950     0.99300
O38         O  0.26211540  0.37137954  0.96490194    -0.61800
O39         O  0.16553102  0.44595792  0.01841680    -0.56600
O40         O  0.26753624  0.44416140  0.97729012    -0.93300
O41         O  0.24415570  0.46833361  0.99623567    -0.91800
O42         O  0.16653083  0.33192988  0.01568260    -0.92100
O43         O  0.18098531  0.28279901  0.99685439    -0.90900
C44         C  0.27597979  0.46600272  0.98884086     1.18200
H45         H  0.09058756  0.36219800  0.00856404     0.34100
H46         H  0.15757860  0.29322549  0.96783426     0.45000
H47         H  0.20496313  0.48089808  0.96758469     0.38500
H48         H  0.02962206  0.34514668  0.95318101     0.35000
H49         H  0.08989769  0.21313796  0.00276588     0.26800
H50         H  0.02560519  0.24081297  0.93191389     0.32700
H51         H  0.10432072  0.40248161  0.92558760     0.38600
H52         H  0.17253228  0.36404589  0.01715626     0.33100
H53         H  0.19860861  0.45590619  0.02027998     0.31900
H54         H  0.21073244  0.53590620  0.00183839     0.33600
H55         H  0.17195966  0.52898029  0.95757615     0.32600
H56         H  0.20850750  0.30621806  0.99163551     0.36600
H57         H  0.26613841  0.36739979  0.97490604     0.29300
H58         H  0.93793831  0.30214933  0.99044322     0.33600
H59         H  0.02821924  0.42533231  0.95887669     0.36400
H60         H  0.16261062  0.47335563  0.02097513     0.29000
H61         H  0.24790421  0.33935687  0.96110667     0.41900
H62         H  0.07095758  0.20845580  0.94693443     0.31900
H63         H  0.05674064  0.20994985  0.99070365     0.39600
H64         H  0.12986989  0.51284979  0.96777807     0.31400
H65         H  0.02051947  0.28554156  0.93212144     0.31500
H66         H  0.94913924  0.34294859  0.97998870     0.31700
Zr67       Zr  0.66209197  0.98154273  0.86981710     2.17500
O68         O  0.64483680  0.04506578  0.87126721    -0.50600
O69         O  0.72472508  0.02411341  0.85298214    -0.73800
O70         O  0.70998777  0.04231057  0.88649593    -0.80600
O71         O  0.56704169  0.92529405  0.84257583    -0.82400
O72         O  0.71427984  0.00458660  0.90555233    -0.78000
O73         O  0.61664931  0.99413612  0.85319318    -0.89600
O74         O  0.75624133  0.97901805  0.84783519    -0.75600
O75         O  0.71740703  0.96200885  0.87821665    -0.85100
O76         O  0.66144669  0.92831770  0.85283637    -0.84800
O77         O  0.63085056  0.94610415  0.89198886    -0.71500
O78         O  0.58351824  0.91694028  0.86855399    -0.83600
Zr79       Zr  0.61017509  0.80767255  0.88310407     2.26400
Zr80       Zr  0.68600870  0.92426658  0.89988362     2.06300
Zr81       Zr  0.58361918  0.86344200  0.85176211     2.10000
Zr82       Zr  0.71651467  0.90832435  0.86162469     1.78800
O83         O  0.50006699  0.81887087  0.84740718    -0.92500
O84         O  0.79659756  0.94820428  0.87012301    -0.40300
O85         O  0.63885695  0.84309461  0.86072263    -0.76900
O86         O  0.68905228  0.87102230  0.88383707    -0.95600
O87         O  0.60811501  0.86034880  0.89930880    -0.88900
O88         O  0.55509720  0.82719581  0.87381393    -0.91700
C89         C  0.75308994  0.01576006  0.84609842     1.02000
C90         C  0.58396361  0.96979083  0.84467062     1.15000
C91         C  0.72157202  0.04128347  0.89913356     1.05700
O92         O  0.76735232  0.94406816  0.90082402    -0.93900
O93         O  0.67523691  0.86500122  0.91636886    -0.89600
O94         O  0.62889968  0.79399519  0.90665534    -0.82800
C95         C  0.65301365  0.82042269  0.91680503     1.12400
O96         O  0.52821497  0.93572494  0.89580674    -0.95900
Zr97       Zr  0.55337558  0.87972516  0.89037689     1.88900
O98         O  0.53339002  0.75613061  0.89270272    -0.72500
O99         O  0.69169991  0.93979455  0.92481562    -0.51800
O100        O  0.54499785  0.88481981  0.91536819    -0.96400
O101        O  0.47899746  0.85964035  0.87959368    -0.53700
O102        O  0.50063365  0.80028237  0.89796669    -0.73000
C103        C  0.49989724  0.76116413  0.89744349     0.99300
O104        O  0.64115765  0.75443866  0.88370628    -0.61800
O105        O  0.59739648  0.86648851  0.82682958    -0.56600
O106        O  0.57878995  0.74966251  0.86513819    -0.93300
O107        O  0.56947210  0.78329755  0.84563504    -0.91800
O108        O  0.72189584  0.88292816  0.83827178    -0.92100
O109        O  0.74907919  0.85669203  0.86121411    -0.90900
C110        C  0.56920447  0.74888394  0.85224027     1.18200
H111        H  0.66930642  0.94171801  0.84364854     0.34100
H112        H  0.70938496  0.86025152  0.88731154     0.45000
H113        H  0.52482775  0.80004632  0.87237830     0.38500
H114        H  0.62970671  0.96841972  0.89822010     0.35000
H115        H  0.81593087  0.95389130  0.86170836     0.26800
H116        H  0.72417260  0.96476332  0.92658880     0.32700
H117        H  0.57728336  0.90419561  0.91883676     0.38600
H118        H  0.69000675  0.85741355  0.83614033     0.33100
H119        H  0.62040054  0.85595392  0.82568100     0.31900
H120        H  0.49566054  0.83143268  0.83857201     0.33600
H121        H  0.46727507  0.82811231  0.87563744     0.32600
H122        H  0.72170018  0.82504881  0.86020946     0.36600
H123        H  0.65241969  0.75454271  0.87416629     0.29300
H124        H  0.67467495  0.07425729  0.86966735     0.33600
H125        H  0.49837722  0.91782228  0.90087216     0.36400
H126        H  0.56810020  0.84073550  0.82295592     0.29000
H127        H  0.67019171  0.77058096  0.88924235     0.41900
H128        H  0.78469961  0.97781074  0.90298280     0.31900
H129        H  0.80294844  0.97957056  0.87298520     0.39600
H130        H  0.48731878  0.88024703  0.87138371     0.31400
H131        H  0.67215822  0.95409722  0.92666889     0.31500
H132        H  0.63669902  0.04643808  0.88109567     0.31700
Zr133      Zr  0.66316017  0.65921123  0.31675908     2.17500
O134        O  0.66488399  0.58787369  0.32193283    -0.50600
O135        O  0.70757594  0.67588939  0.33839079    -0.73800
O136        O  0.71710897  0.64666479  0.30242439    -0.80600
O137        O  0.53758571  0.60349811  0.33153276    -0.82400
O138        O  0.75361508  0.70806584  0.28779724    -0.78000
O139        O  0.59449515  0.58883947  0.32432410    -0.89600
O140        O  0.73074060  0.74968096  0.34535888    -0.75600
O141        O  0.72257669  0.73834036  0.31374072    -0.85100
O142        O  0.64192837  0.70261510  0.33214063    -0.84800
O143        O  0.65918253  0.67469462  0.29239290    -0.71500
O144        O  0.58680507  0.64388585  0.31022258    -0.83600
Zr145      Zr  0.62107932  0.78166140  0.29747173     2.26400
Zr146      Zr  0.71743457  0.75564124  0.28984078     2.06300
Zr147      Zr  0.56558246  0.68742397  0.32559437     2.10000
Zr148      Zr  0.70056995  0.78203229  0.32846088     1.78800
O149        O  0.48068643  0.64527433  0.32558931    -0.92500
O150        O  0.78422594  0.83346551  0.32564809    -0.40300
O151        O  0.62459538  0.76673091  0.32172422    -0.76900
O152        O  0.69853150  0.80209715  0.30451538    -0.95600
O153        O  0.64114705  0.73719508  0.28277174    -0.88900
O154        O  0.56147988  0.70290198  0.30150744    -0.91700
C155        C  0.72784915  0.70993483  0.34701357     1.02000
C156        C  0.55415090  0.57569861  0.32950073     1.15000
C157        C  0.74690737  0.66963099  0.29289898     1.05700
O158        O  0.79244813  0.82169681  0.29652687    -0.93900
O159        O  0.70922105  0.79731555  0.27013494    -0.89600
O160        O  0.65749490  0.82039143  0.27586628    -0.82800
C161        C  0.68662386  0.81860081  0.26744208     1.12400
O162        O  0.57762653  0.58564932  0.28005888    -0.95900
Zr163      Zr  0.58229137  0.65915694  0.28629387     1.88900
O164        O  0.55951776  0.75911386  0.28054898    -0.72500
O165        O  0.76421418  0.77052491  0.26882299    -0.51800
O166        O  0.59698082  0.65616609  0.26160972    -0.96400
O167        O  0.50417629  0.59278552  0.28936644    -0.53700
O168        O  0.53652956  0.68560261  0.27343108    -0.73000
C169        C  0.53352552  0.72278115  0.27326169     0.99300
O170        O  0.64580168  0.86441430  0.29890084    -0.61800
O171        O  0.56497674  0.69198243  0.35085907    -0.56600
O172        O  0.56787642  0.79675552  0.31016242    -0.93300
O173        O  0.53855944  0.74641189  0.32831978    -0.91800
O174        O  0.68720844  0.79877048  0.35212967    -0.92100
O175        O  0.71341423  0.86010107  0.33283826    -0.90900
C176        C  0.54336099  0.78203255  0.32121658     1.18200
H177        H  0.64088128  0.69325170  0.34168676     0.34100
H178        H  0.71949031  0.83484313  0.30296749     0.45000
H179        H  0.53056982  0.69771418  0.29969405     0.38500
H180        H  0.66519967  0.65512685  0.28630044     0.35000
H181        H  0.79397280  0.85400055  0.33392553     0.26800
H182        H  0.79582748  0.77843637  0.27194115     0.32700
H183        H  0.56567921  0.63840959  0.25732851     0.38600
H184        H  0.66217048  0.76861202  0.35574098     0.33100
H185        H  0.54233524  0.70241816  0.35294313     0.31900
H186        H  0.47176877  0.61812522  0.31942474     0.33600
H187        H  0.48393560  0.60666921  0.29050016     0.32600
H188        H  0.73334912  0.87939981  0.32509421     0.36600
H189        H  0.64816266  0.87149448  0.30896934     0.29300
H190        H  0.69771568  0.59754011  0.32411432     0.33600
H191        H  0.58503643  0.57487047  0.28877395     0.36400
H192        H  0.54937305  0.65918341  0.35400873     0.29000
H193        H  0.67856054  0.88094040  0.29567258     0.41900
H194        H  0.79231688  0.84940958  0.29275784     0.31900
H195        H  0.79798103  0.81324656  0.32707314     0.39600
H196        H  0.50459264  0.58029719  0.29866874     0.31400
H197        H  0.75161546  0.74015575  0.26399162     0.31500
H198        H  0.65805807  0.57028202  0.31308493     0.31700
Zr199      Zr  0.02699846  0.64597056  0.20256663     2.17500
O200        O  0.95744632  0.57030132  0.19854842    -0.50600
O201        O  0.99126454  0.66736619  0.18366597    -0.73800
O202        O  0.96327836  0.62886517  0.21887174    -0.80600
O203        O  0.09488457  0.60271414  0.18099278    -0.82400
O204        O  0.99543160  0.67587562  0.23763383    -0.78000
O205        O  0.02312304  0.58271601  0.18952855    -0.89600
O206        O  0.03785228  0.74352988  0.17850915    -0.75600
O207        O  0.04445179  0.72054211  0.21061719    -0.85100
O208        O  0.08508422  0.69818336  0.18665355    -0.84800
O209        O  0.05702764  0.65005567  0.22569998    -0.71500
O210        O  0.09278201  0.63397016  0.20437864    -0.83600
Zr211      Zr  0.19747972  0.76964829  0.21971175     2.26400
Zr212      Zr  0.07664070  0.72660428  0.23333730     2.06300
Zr213      Zr  0.15032802  0.68558364  0.18832555     2.10000
Zr214      Zr  0.10220507  0.77319790  0.19493474     1.78800
O215        O  0.19661840  0.64743268  0.18592212    -0.92500
O216        O  0.05826542  0.81052611  0.20236750    -0.40300
O217        O  0.16732333  0.76096457  0.19652048    -0.76900
O218        O  0.13323195  0.78349162  0.21810862    -0.95600
O219        O  0.14217145  0.71540551  0.23537420    -0.88900
O220        O  0.18127648  0.69507102  0.21124501    -0.91700
C221        C  0.00167111  0.70361556  0.17626628     1.02000
C222        C  0.05066871  0.57347931  0.18278145     1.15000
C223        C  0.96101745  0.64331859  0.23108998     1.05700
O224        O  0.04719073  0.78027426  0.23635462    -0.93900
O225        O  0.12942047  0.78700982  0.24875960    -0.89600
O226        O  0.20288082  0.80936873  0.24186002    -0.82800
C227        C  0.17359953  0.81080156  0.25037643     1.12400
O228        O  0.06973182  0.55982478  0.23236396    -0.95900
Zr229      Zr  0.12498414  0.64111397  0.22705656     1.88900
O230        O  0.24581545  0.74326092  0.23082566    -0.72500
O231        O  0.06493931  0.70212585  0.25758414    -0.51800
O232        O  0.11436713  0.63355282  0.25216643    -0.96400
O233        O  0.14571349  0.58529224  0.21778967    -0.53700
O234        O  0.20322366  0.66639107  0.23585920    -0.73000
C235        C  0.24191044  0.70522333  0.23548113     0.99300
O236        O  0.26151427  0.85010451  0.22035079    -0.61800
O237        O  0.14601323  0.69262148  0.16326585    -0.56600
O238        O  0.25585342  0.80026408  0.20192689    -0.93300
O239        O  0.23185582  0.75104448  0.18329619    -0.91800
O240        O  0.13687137  0.80805508  0.17270026    -0.92100
O241        O  0.15531509  0.85702871  0.19452238    -0.90900
C242        C  0.26211028  0.78876155  0.18976075     1.18200
H243        H  0.07466583  0.69254212  0.17715920     0.34100
H244        H  0.14231923  0.81430977  0.22137245     0.45000
H245        H  0.20879857  0.69197749  0.21050372     0.38500
H246        H  0.03337180  0.62646588  0.23155501     0.35000
H247        H  0.06316291  0.83307245  0.19491339     0.26800
H248        H  0.04418401  0.71288071  0.26144033     0.32700
H249        H  0.08021760  0.61759470  0.25358435     0.38600
H250        H  0.14323337  0.78491988  0.16819148     0.33100
H251        H  0.16736748  0.72602595  0.16130030     0.31900
H252        H  0.21901393  0.66447917  0.17837108     0.33600
H253        H  0.17973520  0.60348149  0.21613165     0.32600
H254        H  0.18484070  0.86115457  0.19840277     0.36600
H255        H  0.24713953  0.86934293  0.22257210     0.29300
H256        H  0.93191961  0.57690678  0.19665845     0.33600
H257        H  0.08564717  0.55053406  0.23929446     0.36400
H258        H  0.16194559  0.67659332  0.15935975     0.29000
H259        H  0.28037833  0.85247613  0.22861801     0.41900
H260        H  0.02313520  0.77140637  0.22906098     0.31900
H261        H  0.02507503  0.78619078  0.20145472     0.39600
H262        H  0.13196447  0.57790298  0.20835544     0.31400
H263        H  0.04560131  0.66774579  0.25734915     0.31500
H264        H  0.94954194  0.55383921  0.20758283     0.31700
Zr265      Zr  0.66753451  0.00490092  0.14787276     2.17500
O266        O  0.58843857  0.93855221  0.14977108    -0.50600
O267        O  0.68302868  0.96556674  0.16696834    -0.73800
O268        O  0.64911523  0.94083468  0.13159311    -0.80600
O269        O  0.62596763  0.07364657  0.17006608    -0.82400
O270        O  0.70119530  0.97079109  0.11393938    -0.78000
O271        O  0.60526571  0.00203449  0.16125471    -0.89600
O272        O  0.75896090  0.00915256  0.17306082    -0.75600
O273        O  0.74347698  0.01955332  0.14207821    -0.85100
O274        O  0.71735423  0.06169298  0.16452447    -0.84800
O275        O  0.67910083  0.03515136  0.12453639    -0.71500
O276        O  0.65779276  0.07193955  0.14540337    -0.83600
Zr277      Zr  0.79928364  0.17260501  0.13228109     2.26400
Zr278      Zr  0.75633086  0.05084693  0.11902372     2.06300
Zr279      Zr  0.70815887  0.12878717  0.16200939     2.10000
Zr280      Zr  0.79368866  0.07726432  0.15833294     1.78800
O281        O  0.66786373  0.17333081  0.16317444    -0.92500
O282        O  0.84052154  0.04062913  0.15398150    -0.40300
O283        O  0.78431345  0.14350589  0.15561729    -0.76900
O284        O  0.81059885  0.10700252  0.13497985    -0.95600
O285        O  0.74725639  0.11738634  0.11605579    -0.88900
O286        O  0.72400821  0.15968816  0.13892072    -0.91700
C287        C  0.71811111  0.97386693  0.17465842     1.02000
C288        C  0.59657339  0.02941168  0.16832881     1.15000
C289        C  0.66539132  0.93765953  0.11978980     1.05700
O290        O  0.80554426  0.01557955  0.11990303    -0.93900
O291        O  0.81837736  0.10395540  0.10381660    -0.89600
O292        O  0.84026149  0.17751249  0.11058435    -0.82800
C293        C  0.84209940  0.14820962  0.10217970     1.12400
O294        O  0.59184915  0.04752080  0.11658111    -0.95900
Zr295      Zr  0.67237930  0.10390538  0.12251149     1.88900
O296        O  0.78021655  0.22365499  0.11951272    -0.72500
O297        O  0.74502306  0.03549548  0.09411131    -0.51800
O298        O  0.66226196  0.09337549  0.09744646    -0.96400
O299        O  0.61879647  0.12961023  0.13034985    -0.53700
O300        O  0.70520386  0.18085720  0.11216355    -0.73000
C301        C  0.74431721  0.21903381  0.11305273     0.99300
O302        O  0.88188750  0.23079795  0.13379718    -0.61800
O303        O  0.71704681  0.13002910  0.18713588    -0.56600
O304        O  0.82767268  0.23220185  0.14971665    -0.93300
O305        O  0.77395543  0.21017413  0.16711495    -0.91800
O306        O  0.81546898  0.10676755  0.18196497    -0.92100
O307        O  0.87621791  0.13334725  0.16124990    -0.90900
C308        C  0.81357215  0.23937068  0.16134391     1.18200
H309        H  0.70914878  0.05041654  0.17394001     0.34100
H310        H  0.84213683  0.11533735  0.13249660     0.45000
H311        H  0.72238612  0.18798288  0.13896186     0.38500
H312        H  0.65627767  0.01246301  0.11827053     0.35000
H313        H  0.84877114  0.03463111  0.16333829     0.26800
H314        H  0.75096807  0.00946252  0.09232479     0.32700
H315        H  0.66341384  0.06460227  0.09551467     0.38600
H316        H  0.78674306  0.08890489  0.18752564     0.33100
H317        H  0.75042340  0.14040393  0.18858251     0.31900
H318        H  0.68841976  0.20123507  0.16879108     0.33600
H319        H  0.60971769  0.13963932  0.12179312     0.32600
H320        H  0.87987174  0.16298334  0.15765993     0.36600
H321        H  0.89875151  0.21383537  0.13171368     0.29300
H322        H  0.59162099  0.91075188  0.15138390     0.33600
H323        H  0.58220933  0.06296072  0.10959640     0.36400
H324        H  0.71372910  0.15669990  0.19028895     0.29000
H325        H  0.88824847  0.25185372  0.12578996     0.41900
H326        H  0.82879759  0.03112008  0.11243180     0.31900
H327        H  0.81827937  0.00932650  0.15028519     0.39600
H328        H  0.63843073  0.15894381  0.13549154     0.31400
H329        H  0.71122321  0.02230869  0.09247157     0.31500
H330        H  0.57414750  0.93402972  0.14044350     0.31700
Zr331      Zr  0.66417356  0.62812412  0.03601272     2.17500
O332        O  0.59100687  0.62564406  0.03041478    -0.50600
O333        O  0.67622778  0.67520670  0.01519383    -0.73800
O334        O  0.64564750  0.67434623  0.05202326    -0.80600
O335        O  0.63357179  0.53139635  0.01182625    -0.82400
O336        O  0.71020871  0.71739485  0.06516799    -0.78000
O337        O  0.60142721  0.55397775  0.02857511    -0.89600
O338        O  0.75241331  0.71011874  0.00918876    -0.75600
O339        O  0.73933046  0.69089027  0.04161927    -0.85100
O340        O  0.71580073  0.62177386  0.01974008    -0.84800
O341        O  0.67620050  0.61488894  0.05986280    -0.71500
O342        O  0.65668055  0.55250961  0.03906518    -0.83600
Zr343      Zr  0.79725035  0.59753932  0.05301083     2.26400
Zr344      Zr  0.75350148  0.67679483  0.06504868     2.06300
Zr345      Zr  0.70904509  0.54703535  0.02290295     2.10000
Zr346      Zr  0.79086945  0.68459899  0.02568979     1.78800
O347        O  0.66579391  0.46221121  0.02288578    -0.92500
O348        O  0.82945248  0.76812106  0.03012764    -0.40300
O349        O  0.78470737  0.61013168  0.02912097    -0.76900
O350        O  0.80775255  0.67373291  0.04932979    -0.95600
O351        O  0.74456102  0.60192755  0.06852153    -0.88900
O352        O  0.72234913  0.53437756  0.04648410    -0.91700
C353        C  0.71040050  0.70117884  0.00712736     1.02000
C354        C  0.59918477  0.53522763  0.01681560     1.15000
C355        C  0.66979027  0.70713629  0.06072186     1.05700
O356        O  0.81667965  0.75739713  0.06584292    -0.93900
O357        O  0.80471308  0.67600235  0.08306447    -0.89600
O358        O  0.82954570  0.62664384  0.07614483    -0.82800
C359        C  0.82749168  0.65449760  0.08510066     1.12400
O360        O  0.59047169  0.51787404  0.06840215    -0.95900
Zr361      Zr  0.67038827  0.53984204  0.06252571     1.88900
O362        O  0.77950774  0.52898650  0.06654971    -0.72500
O363        O  0.72586317  0.67736986  0.08850972    -0.51800
O364        O  0.66837766  0.54508733  0.08773765    -0.96400
O365        O  0.61332707  0.45870011  0.05773469    -0.53700
O366        O  0.70377715  0.49675112  0.07296945    -0.73000
C367        C  0.74301853  0.49781735  0.07282516     0.99300
O368        O  0.88205358  0.63419814  0.05332268    -0.61800
O369        O  0.71824447  0.54631769  0.99781281    -0.56600
O370        O  0.82313815  0.55854685  0.03755195    -0.93300
O371        O  0.77384441  0.52864678  0.01912851    -0.91800
O372        O  0.81989795  0.67971164  0.00286234    -0.92100
O373        O  0.87478158  0.71891281  0.02303319    -0.90900
C374        C  0.81074787  0.53609041  0.02607214     1.18200
H375        H  0.70767444  0.62260042  0.01017161     0.34100
H376        H  0.83912481  0.69721670  0.05176224     0.45000
H377        H  0.72082743  0.50452473  0.04686335     0.38500
H378        H  0.65368626  0.61610667  0.06598216     0.35000
H379        H  0.84240005  0.78261635  0.02100852     0.26800
H380        H  0.73746652  0.71059408  0.09070637     0.32700
H381        H  0.67125652  0.57583686  0.08955591     0.38600
H382        H  0.79433809  0.65093748  0.99868450     0.33100
H383        H  0.75233959  0.56257930  0.99626206     0.31900
H384        H  0.63428785  0.45396634  0.02620078     0.33600
H385        H  0.60740294  0.44300331  0.06686045     0.32600
H386        H  0.88194053  0.69614320  0.02737411     0.36600
H387        H  0.89167849  0.63992937  0.04345132     0.29300
H388        H  0.59865640  0.65846280  0.02943385     0.33600
H389        H  0.57937181  0.52818210  0.06034079     0.36400
H390        H  0.70745275  0.51331362  0.99552523     0.29000
H391        H  0.89333256  0.66575418  0.05720357     0.41900
H392        H  0.82315733  0.76452647  0.07586257     0.31900
H393        H  0.80387763  0.77481209  0.03182945     0.39600
H394        H  0.63075230  0.44670218  0.05242339     0.31400
H395        H  0.69164613  0.66332208  0.08768534     0.31500
H396        H  0.57164756  0.61431793  0.03891283     0.31700
Zr397      Zr  0.38198107  0.34288110  0.81679260     2.17500
O398        O  0.38877435  0.41820366  0.82211618    -0.50600
O399        O  0.33183769  0.32164112  0.83709470    -0.73800
O400        O  0.32872755  0.35776548  0.80293098    -0.80600
O401        O  0.50336871  0.39108140  0.83321445    -0.82400
O402        O  0.28901856  0.29488266  0.78889797    -0.78000
O403        O  0.44616764  0.40780299  0.82810427    -0.89600
O404        O  0.30000329  0.24444473  0.84155843    -0.75600
O405        O  0.32228131  0.26603932  0.81138151    -0.85100
O406        O  0.39662160  0.29376152  0.83168407    -0.84800
O407        O  0.39311861  0.33470730  0.79243855    -0.71500
O408        O  0.45880081  0.35704056  0.81153691    -0.83600
Zr409      Zr  0.42250638  0.22055874  0.79587505     2.26400
Zr410      Zr  0.33397898  0.25604353  0.78732301     2.06300
Zr411      Zr  0.47342329  0.30766187  0.82631323     2.10000
Zr412      Zr  0.33737430  0.21649896  0.82568346     1.78800
O413        O  0.55822621  0.34635887  0.82642886    -0.92500
O414        O  0.25474980  0.16369364  0.82142076    -0.40300
O415        O  0.41369856  0.23031517  0.82022396    -0.76900
O416        O  0.34500808  0.20319123  0.80146418    -0.95600
O417        O  0.41041162  0.27164136  0.78170550    -0.88900
O418        O  0.48250233  0.29687758  0.80236351    -0.91700
C419        C  0.30580220  0.28490615  0.84416645     1.02000
C420        C  0.48638285  0.41897633  0.83288818     1.15000
C421        C  0.29665000  0.33370163  0.79403534     1.05700
O422        O  0.25608794  0.18797450  0.78785576    -0.93900
O423        O  0.33487330  0.20821665  0.76827811    -0.89600
O424        O  0.38905648  0.18772166  0.77322648    -0.82800
C425        C  0.35816062  0.18794763  0.76519378     1.12400
O426        O  0.48043110  0.42307932  0.78097361    -0.95900
Zr427      Zr  0.47015951  0.34747817  0.78761696     1.88900
O428        O  0.49009133  0.24509945  0.78123206    -0.72500
O429        O  0.32230663  0.28099356  0.76457776    -0.51800
O430        O  0.46474277  0.35127973  0.76246514    -0.96400
O431        O  0.54608826  0.41234042  0.79417427    -0.53700
O432        O  0.52209408  0.32301748  0.77755734    -0.73000
C433        C  0.52237940  0.28441052  0.77667710     0.99300
O434        O  0.39360657  0.13681220  0.79544132    -0.61800
O435        O  0.46987520  0.29838316  0.85144512    -0.56600
O436        O  0.46974092  0.19933581  0.80940111    -0.93300
O437        O  0.49896337  0.24762219  0.82812793    -0.91800
O438        O  0.34936936  0.19702403  0.84915847    -0.92100
O439        O  0.31910398  0.13624874  0.82886272    -0.90900
C440        C  0.49372600  0.21254198  0.82061027     1.18200
H441        H  0.39535962  0.30072218  0.84135924     0.34100
H442        H  0.32300688  0.17147424  0.79898366     0.45000
H443        H  0.51338593  0.30094437  0.80174133     0.38500
H444        H  0.38836660  0.35637581  0.78692424     0.35000
H445        H  0.24028559  0.15672688  0.83075979     0.26800
H446        H  0.28808770  0.26535633  0.76331410     0.32700
H447        H  0.43121398  0.33924238  0.76063493     0.38600
H448        H  0.36132022  0.22622825  0.85457707     0.33100
H449        H  0.46600984  0.26708592  0.85294223     0.31900
H450        H  0.56673909  0.34735075  0.83633154     0.33600
H451        H  0.56673969  0.41613781  0.78624003     0.32600
H452        H  0.34902319  0.13699696  0.82729272     0.36600
H453        H  0.38660602  0.12686949  0.80525982     0.29300
H454        H  0.35799569  0.41104064  0.82582025     0.33600
H455        H  0.50402423  0.43471735  0.77346668     0.36400
H456        H  0.50190631  0.32029948  0.85469029     0.29000
H457        H  0.36254638  0.12263808  0.79097994     0.41900
H458        H  0.23482462  0.20068321  0.78895429     0.31900
H459        H  0.24351983  0.18320706  0.81698955     0.39600
H460        H  0.55693167  0.39992263  0.80175724     0.31400
H461        H  0.33258990  0.31453455  0.76552607     0.31500
H462        H  0.39172077  0.43374325  0.81308919     0.31700
Zr463      Zr  0.00673904  0.34182699  0.70427797     2.17500
O464        O  0.07736126  0.41531608  0.69888867    -0.50600
O465        O  0.03659296  0.32111442  0.68383266    -0.73800
O466        O  0.07397848  0.36002094  0.71917253    -0.80600
O467        O  0.93570895  0.39099754  0.68711367    -0.82400
O468        O  0.04982389  0.30193485  0.73500875    -0.78000
O469        O  0.00878567  0.40804953  0.69345182    -0.89600
O470        O  0.98619513  0.24656258  0.67756013    -0.75600
O471        O  0.98921324  0.26428941  0.70905910    -0.85100
O472        O  0.94301275  0.29391604  0.68908908    -0.84800
O473        O  0.98603207  0.33135136  0.72858506    -0.71500
O474        O  0.94393006  0.35626928  0.70957634    -0.83600
Zr475      Zr  0.84258958  0.21824852  0.72444182     2.26400
Zr476      Zr  0.96664442  0.25227814  0.73303768     2.06300
Zr477      Zr  0.88013323  0.30783967  0.69449110     2.10000
Zr478      Zr  0.92434753  0.21609213  0.69451727     1.78800
O479        O  0.83570211  0.34823775  0.69401351    -0.92500
O480        O  0.96179638  0.16914572  0.69698141    -0.40300
O481        O  0.86204364  0.23003403  0.70014467    -0.76900
O482        O  0.90268486  0.20074606  0.71863698    -0.95600
O483        O  0.90581592  0.26785446  0.73885047    -0.88900
O484        O  0.85940847  0.29520848  0.71849030    -0.91700
C485        C  0.02339221  0.28577435  0.67575094     1.02000
C486        C  0.98061325  0.41908392  0.68792393     1.15000
C487        C  0.08087629  0.33996364  0.72955210     1.05700
O488        O  0.98694158  0.19182265  0.72919889    -0.93900
O489        O  0.91622636  0.20237309  0.75146830    -0.89600
O490        O  0.84198243  0.18448395  0.74704388    -0.82800
C491        C  0.87302623  0.18345913  0.75483442     1.12400
O492        O  0.98783652  0.42162589  0.73821083    -0.95900
Zr493      Zr  0.92222308  0.34411944  0.73349154     1.88900
O494        O  0.79948814  0.24193734  0.73962668    -0.72500
O495        O  0.99667265  0.25909304  0.75661741    -0.51800
O496        O  0.93889024  0.34840110  0.75827168    -0.96400
O497        O  0.90173651  0.40432541  0.72953973    -0.53700
O498        O  0.84875745  0.31752507  0.74552666    -0.73000
C499        C  0.80891949  0.27999688  0.74585292     0.99300
O500        O  0.78991950  0.13412839  0.72367217    -0.61800
O501        O  0.87330215  0.29917513  0.66930934    -0.56600
O502        O  0.77427251  0.19788905  0.71101519    -0.93300
O503        O  0.79439970  0.24658474  0.69239861    -0.91800
O504        O  0.88774050  0.19458828  0.67170324    -0.92100
O505        O  0.86577454  0.13415483  0.69186704    -0.90900
C506        C  0.76408939  0.21131695  0.69976699     1.18200
H507        H  0.95124870  0.30142869  0.67946444     0.34100
H508        H  0.89257737  0.16842923  0.72083744     0.45000
H509        H  0.83274727  0.29946218  0.71966169     0.38500
H510        H  0.01113529  0.35291334  0.73446071     0.35000
H511        H  0.95627181  0.15259450  0.68798947     0.26800
H512        H  0.02008833  0.24885313  0.75614145     0.32700
H513        H  0.95792097  0.33315351  0.75931008     0.38600
H514        H  0.86220096  0.20191140  0.67212292     0.33100
H515        H  0.83945583  0.28439924  0.66743458     0.31900
H516        H  0.82148228  0.34171629  0.68463943     0.33600
H517        H  0.87047692  0.38771805  0.72519322     0.32600
H518        H  0.83556435  0.13327994  0.69277911     0.36600
H519        H  0.78658997  0.12591343  0.71367931     0.29300
H520        H  0.10178542  0.40730480  0.69674745     0.33600
H521        H  0.97831633  0.43320286  0.74635925     0.36400
H522        H  0.88642560  0.33133233  0.66575144     0.29000
H523        H  0.80809553  0.12033293  0.72746735     0.41900
H524        H  0.95713682  0.16200500  0.72979880     0.31900
H525        H  0.99566180  0.19182048  0.69701294     0.39600
H526        H  0.92258313  0.42362858  0.72194489     0.31400
H527        H  0.01458525  0.29284269  0.75876228     0.31500
H528        H  0.08747332  0.43347123  0.70765221     0.31700
Zr529      Zr  0.00337460  0.64246354  0.48411378     2.17500
O530        O  0.07469896  0.63777220  0.48479159    -0.50600
O531        O  0.03697287  0.69288920  0.50433834    -0.73800
O532        O  0.06615938  0.69853714  0.46919835    -0.80600
O533        O  0.94138147  0.52951898  0.50504938    -0.82400
O534        O  0.03742211  0.73434356  0.45567022    -0.78000
O535        O  0.01149347  0.58433518  0.49631270    -0.89600
O536        O  0.98751982  0.71683539  0.51166301    -0.75600
O537        O  0.98200878  0.69955646  0.47958346    -0.85100
O538        O  0.94334882  0.62663154  0.50067950    -0.84800
O539        O  0.97737040  0.62789601  0.46041059    -0.71500
O540        O  0.94186096  0.56368309  0.48023426    -0.83600
Zr541      Zr  0.83445113  0.59509664  0.46751732     2.26400
Zr542      Zr  0.95413943  0.68483204  0.45607012     2.06300
Zr543      Zr  0.88089849  0.54875645  0.49653619     2.10000
Zr544      Zr  0.92163918  0.68375638  0.49580792     1.78800
O545        O  0.84269453  0.46406957  0.49626723    -0.92500
O546        O  0.95572297  0.76777918  0.49351658    -0.40300
O547        O  0.85949324  0.60648746  0.49133725    -0.76900
O548        O  0.89426559  0.67354929  0.47210660    -0.95600
O549        O  0.89352272  0.60708683  0.45154828    -0.88900
O550        O  0.85401018  0.53654658  0.47300206    -0.91700
C551        C  0.02485765  0.71455488  0.51295916     1.02000
C552        C  0.98616751  0.54774454  0.50341157     1.15000
C553        C  0.07072152  0.72905756  0.46020694     1.05700
O554        O  0.96552784  0.76343557  0.45573549    -0.93900
O555        O  0.89974222  0.68253668  0.43874394    -0.89600
O556        O  0.82696449  0.62901936  0.44576853    -0.82800
C557        C  0.85537843  0.65933022  0.43704480     1.12400
O558        O  0.97310417  0.53035597  0.45017438    -0.95900
Zr559      Zr  0.91377924  0.54959177  0.45687048     1.88900
O560        O  0.79033222  0.52781628  0.45287242    -0.72500
O561        O  0.98491184  0.68941918  0.43270703    -0.51800
O562        O  0.93394974  0.55752260  0.43229324    -0.96400
O563        O  0.89459910  0.47070873  0.46310587    -0.53700
O564        O  0.83845773  0.50201699  0.44555299    -0.73000
C565        C  0.79843915  0.49945504  0.44599694     0.99300
O566        O  0.77630514  0.61956486  0.46966053    -0.61800
O567        O  0.87173146  0.54873943  0.52165835    -0.56600
O568        O  0.77054724  0.54577197  0.48217827    -0.93300
O569        O  0.79604058  0.52264437  0.50082870    -0.91800
O570        O  0.88668132  0.66542640  0.51887954    -0.92100
O571        O  0.86440231  0.70815682  0.49987599    -0.90900
C572        C  0.76356155  0.52485553  0.49382280     1.18200
H573        H  0.95379008  0.62821719  0.51013445     0.34100
H574        H  0.88299274  0.69474675  0.47009328     0.45000
H575        H  0.82752128  0.50546495  0.47229959     0.38500
H576        H  0.00264519  0.63286278  0.45432604     0.35000
H577        H  0.95916882  0.77938988  0.50318170     0.26800
H578        H  0.00354272  0.72309651  0.43058122     0.32700
H579        H  0.92259547  0.57779081  0.42848542     0.38600
H580        H  0.90833743  0.66026206  0.52469232     0.33100
H581        H  0.84891622  0.51599448  0.52398806     0.31900
H582        H  0.84200406  0.45528362  0.50612578     0.33600
H583        H  0.86175071  0.45526777  0.46623090     0.32600
H584        H  0.83696981  0.68625312  0.49430632     0.36600
H585        H  0.77304672  0.62292154  0.47976158     0.29300
H586        H  0.10022238  0.66926350  0.48733583     0.33600
H587        H  0.99544568  0.54154725  0.45802081     0.36400
H588        H  0.90159685  0.55382227  0.52554140     0.29000
H589        H  0.79182366  0.65198362  0.46617680     0.41900
H590        H  0.93480028  0.75970484  0.45330766     0.31900
H591        H  0.98807214  0.77911344  0.49033844     0.39600
H592        H  0.91263944  0.47432219  0.47167764     0.31400
H593        H  0.00802913  0.67890934  0.43354633     0.31500
H594        H  0.08111792  0.63270279  0.47508091     0.31700
Zr595      Zr  0.36628375  0.01191073  0.36852237     2.17500
O596        O  0.37714018  0.94419307  0.36855465    -0.50600
O597        O  0.31005212  0.97441064  0.34965518    -0.73800
O598        O  0.31486324  0.94966504  0.38437593    -0.80600
O599        O  0.47488653  0.07098894  0.34557832    -0.82400
O600        O  0.30432734  0.98524410  0.40305387    -0.78000
O601        O  0.41837680  0.00115522  0.35393188    -0.89600
O602        O  0.28575843  0.02401239  0.34278949    -0.75600
O603        O  0.30965775  0.03287730  0.37465545    -0.85100
O604        O  0.37660044  0.06920211  0.35166365    -0.84800
O605        O  0.38880529  0.04262902  0.39171250    -0.71500
O606        O  0.44569701  0.07462280  0.37030435    -0.83600
Zr607      Zr  0.41835719  0.18438846  0.38323711     2.26400
Zr608      Zr  0.33264537  0.06573541  0.39742922     2.06300
Zr609      Zr  0.45536854  0.13190903  0.35344870     2.10000
Zr610      Zr  0.32058275  0.09102021  0.35815678     1.78800
O611        O  0.54013500  0.17557276  0.35206715    -0.92500
O612        O  0.23742993  0.05427183  0.36302386    -0.40300
O613        O  0.39906627  0.15375165  0.36004851    -0.76900
O614        O  0.33881382  0.12303071  0.38128519    -0.95600
O615        O  0.41091130  0.12797294  0.39962735    -0.88900
O616        O  0.47495603  0.16348458  0.37640060    -0.91700
C617        C  0.28712903  0.98619553  0.34143291     1.02000
C618        C  0.45531675  0.02601233  0.34691873     1.15000
C619        C  0.30014651  0.94940358  0.39672030     1.05700
O620        O  0.25109253  0.04451155  0.39542707    -0.93900
O621        O  0.33866983  0.12457377  0.41348811    -0.89600
O622        O  0.39084932  0.19649911  0.40562060    -0.82800
C623        C  0.36152076  0.16901492  0.41469922     1.12400
O624        O  0.48281038  0.04497127  0.39923159    -0.95900
Zr625      Zr  0.46698318  0.10714436  0.39312222     1.88900
O626        O  0.48984703  0.23103658  0.39600723    -0.72500
O627        O  0.31756184  0.04984221  0.42224369    -0.51800
O628        O  0.46411304  0.09952776  0.41833512    -0.96400
O629        O  0.54495450  0.12496248  0.38619220    -0.53700
O630        O  0.51773790  0.18417674  0.40281519    -0.73000
C631        C  0.52003720  0.22399723  0.40220798     0.99300
O632        O  0.39058580  0.23975228  0.38095678    -0.61800
O633        O  0.44813699  0.13009403  0.32821837    -0.56600
O634        O  0.46058942  0.24578624  0.36672962    -0.93300
O635        O  0.47451262  0.21375267  0.34757522    -0.91800
O636        O  0.32632772  0.12228365  0.33490236    -0.92100
O637        O  0.29529960  0.14826117  0.35590411    -0.90900
C638        C  0.47483102  0.24824986  0.35421469     1.18200
H639        H  0.37226390  0.05733150  0.34228579     0.34100
H640        H  0.31800595  0.13428904  0.38394398     0.45000
H641        H  0.50611433  0.19002224  0.37620248     0.38500
H642        H  0.38737644  0.01916601  0.39793692     0.35000
H643        H  0.22277595  0.05083969  0.35380536     0.26800
H644        H  0.28503525  0.02391438  0.42306397     0.32700
H645        H  0.43373582  0.07134458  0.42026119     0.38600
H646        H  0.36009510  0.14366963  0.33346180     0.33100
H647        H  0.48065798  0.14789743  0.32482181     0.31900
H648        H  0.54813499  0.15966577  0.34475861     0.33600
H649        H  0.55930624  0.15654490  0.38210912     0.32600
H650        H  0.32426116  0.17876833  0.35684635     0.36600
H651        H  0.35784448  0.22288662  0.38419855     0.29300
H652        H  0.34630106  0.91680272  0.36645129     0.33600
H653        H  0.50807308  0.05871797  0.40623609     0.36400
H654        H  0.43758356  0.09747362  0.32549637     0.29000
H655        H  0.40759485  0.26386355  0.38813275     0.41900
H656        H  0.23519347  0.02212258  0.40306618     0.31900
H657        H  0.22798535  0.02199276  0.36580589     0.39600
H658        H  0.53993049  0.10420402  0.37816499     0.31400
H659        H  0.33716941  0.03661543  0.42522094     0.31500
H660        H  0.38402140  0.94004697  0.37829148     0.31700
Zr661      Zr  0.36733796  0.98626735  0.64971210     2.17500
O662        O  0.44542743  0.05394529  0.65195638    -0.50600
O663        O  0.34645737  0.02737358  0.66681283    -0.73800
O664        O  0.38494252  0.04813605  0.63281254    -0.80600
O665        O  0.40347150  0.92356189  0.67556809    -0.82400
O666        O  0.34114817  0.01393845  0.61364908    -0.78000
O667        O  0.42603056  0.99387315  0.66553842    -0.89600
O668        O  0.26990643  0.98336388  0.67191361    -0.75600
O669        O  0.29407672  0.96962182  0.64074156    -0.85100
O670        O  0.31221928  0.93268835  0.66603948    -0.84800
O671        O  0.36450928  0.95240442  0.62734442    -0.71500
O672        O  0.37838694  0.91961166  0.65041085    -0.83600
Zr673      Zr  0.24079140  0.81508979  0.63506734     2.26400
Zr674      Zr  0.28921317  0.93358415  0.61877208     2.06300
Zr675      Zr  0.32263566  0.86616946  0.66674308     2.10000
Zr676      Zr  0.23849478  0.91611024  0.65674428     1.78800
O677        O  0.35826821  0.82162890  0.67489806    -0.92500
O678        O  0.20480241  0.96213791  0.64820909    -0.40300
O679        O  0.24803087  0.84913559  0.65764586    -0.76900
O680        O  0.22969369  0.88108687  0.63424513    -0.95600
O681        O  0.29770080  0.86644689  0.61924294    -0.88900
O682        O  0.31420013  0.83067029  0.64443502    -0.91700
C683        C  0.31023135  0.01909074  0.67389516     1.02000
C684        C  0.43293072  0.96774462  0.67372860     1.15000
C685        C  0.37219849  0.04921241  0.62029595     1.05700
O686        O  0.23921175  0.96603222  0.61363031    -0.93900
O687        O  0.23189761  0.87835337  0.60306428    -0.89600
O688        O  0.20441597  0.80612144  0.61216748    -0.82800
C689        C  0.20683953  0.83395913  0.60246126     1.12400
O690        O  0.45276752  0.93445181  0.62285434    -0.95900
Zr691      Zr  0.37074316  0.88308773  0.62837703     1.88900
O692        O  0.26384336  0.76328762  0.62451760    -0.72500
O693        O  0.31645633  0.94019510  0.59490922    -0.51800
O694        O  0.38601253  0.89015445  0.60345305    -0.96400
O695        O  0.41864847  0.85570860  0.63962793    -0.53700
O696        O  0.34081780  0.80521950  0.61921913    -0.73000
C697        C  0.30150289  0.76725878  0.61946948     0.99300
O698        O  0.15767569  0.75826063  0.63574203    -0.61800
O699        O  0.30439983  0.87377997  0.69078535    -0.56600
O700        O  0.21055459  0.75706162  0.65291593    -0.93300
O701        O  0.25874950  0.78396469  0.67174343    -0.91800
O702        O  0.20059383  0.88626842  0.67906676    -0.92100
O703        O  0.15381821  0.86908407  0.65548695    -0.90900
C704        C  0.22181276  0.75244150  0.66527127     1.18200
H705        H  0.31763549  0.94519169  0.67536548     0.34100
H706        H  0.19924280  0.87215388  0.63049397     0.45000
H707        H  0.31581352  0.80256862  0.64558805     0.38500
H708        H  0.38897530  0.97467963  0.62138784     0.35000
H709        H  0.19148205  0.96864593  0.65656082     0.26800
H710        H  0.30657001  0.96037979  0.59019625     0.32700
H711        H  0.35523312  0.87844246  0.59897649     0.38600
H712        H  0.18807224  0.90679017  0.68173890     0.33100
H713        H  0.27105454  0.86482793  0.69061607     0.31900
H714        H  0.35132874  0.79792052  0.66760315     0.33600
H715        H  0.39877964  0.82140182  0.64010694     0.37400
H716        H  0.14729676  0.83648954  0.65511445     0.36600
H717        H  0.14189451  0.77583819  0.63312444     0.29300
H718        H  0.44089191  0.08084376  0.65380948     0.33600
H719        H  0.46300562  0.91429564  0.61825478     0.36400
H720        H  0.30499159  0.84782742  0.69567861     0.29000
H721        H  0.15187317  0.73666183  0.62788803     0.41900
H722        H  0.24959061  0.98062530  0.60437753     0.31900
H723        H  0.23161118  0.99279100  0.64565980     0.39600
H724        H  0.42139114  0.86617034  0.64940299     0.31400
H725        H  0.35084916  0.95920269  0.59543488     0.31500
H726        H  0.45995389  0.05964823  0.64263698     0.31700
Zr727      Zr  0.35656587  0.34911241  0.53631359     2.17500
O728        O  0.42389499  0.34091341  0.53034487    -0.50600
O729        O  0.33844214  0.30346091  0.51498593    -0.73800
O730        O  0.36852092  0.29690907  0.55155612    -0.80600
O731        O  0.40727027  0.46333200  0.51670728    -0.82400
O732        O  0.30474962  0.25837611  0.56524011    -0.78000
O733        O  0.42610028  0.41376208  0.52745708    -0.89600
O734        O  0.26542846  0.28241013  0.50801451    -0.75600
O735        O  0.27846664  0.29174011  0.54127761    -0.85100
O736        O  0.31136402  0.36719956  0.52078047    -0.84800
O737        O  0.34803143  0.36197898  0.56048081    -0.71500
O738        O  0.37474771  0.42767382  0.54103513    -0.83600
Zr739      Zr  0.23787203  0.39587671  0.55561906     2.26400
Zr740      Zr  0.26832715  0.30516900  0.56522145     2.06300
Zr741      Zr  0.32821590  0.44490673  0.52584559     2.10000
Zr742      Zr  0.23294739  0.30949746  0.52600581     1.78800
O743        O  0.37543980  0.52948233  0.52738424    -0.92500
O744        O  0.18899305  0.22467453  0.52681943    -0.40300
O745        O  0.24961333  0.38672127  0.53143284    -0.76900
O746        O  0.21853814  0.31774238  0.55015461    -0.95600
O747        O  0.28638439  0.38258959  0.57058089    -0.88900
O748        O  0.31557324  0.45516246  0.54977217    -0.91700
C749        C  0.30490189  0.28466127  0.50620065     1.02000
C750        C  0.43573958  0.44791365  0.51939443     1.15000
C751        C  0.34400219  0.26584698  0.56060830     1.05700
O752        O  0.20688380  0.22404037  0.56698782    -0.93900
O753        O  0.21074324  0.29900960  0.58187305    -0.89600
O754        O  0.19765438  0.35862507  0.57731405    -0.82800
C755        C  0.19227703  0.32401690  0.58476786     1.12400
O756        O  0.44417654  0.45903075  0.56795890    -0.95900
Zr757      Zr  0.36371416  0.44026322  0.56476039     1.88900
O758        O  0.26249393  0.46087121  0.57133856    -0.72500
O759        O  0.29699409  0.30775257  0.58871984    -0.51800
O760        O  0.38003334  0.43202158  0.58891195    -0.96400
O761        O  0.42342181  0.52010780  0.55948424    -0.53700
O762        O  0.33689346  0.48543393  0.57786069    -0.73000
C763        C  0.29939264  0.48786731  0.57824972     0.99300
O764        O  0.15488348  0.37064513  0.55450726    -0.61800
O765        O  0.32058993  0.44997987  0.50081138    -0.56600
O766        O  0.22118977  0.44557780  0.54176156    -0.93300
O767        O  0.26735474  0.46858419  0.52252465    -0.91800
O768        O  0.20697569  0.32772508  0.50446567    -0.92100
O769        O  0.14991236  0.28302767  0.52450895    -0.90900
C770        C  0.23330174  0.46597385  0.52998080     1.18200
H771        H  0.31955685  0.36722988  0.51115099     0.34100
H772        H  0.18640052  0.29637553  0.55247793     0.45000
H773        H  0.32035005  0.48619036  0.55101507     0.38500
H774        H  0.36893190  0.35708526  0.56630544     0.35000
H775        H  0.17620792  0.21504997  0.51732133     0.26800
H776        H  0.27786750  0.27558497  0.59226102     0.32700
H777        H  0.35039055  0.40617669  0.59253451     0.38600
H778        H  0.23482646  0.35587285  0.50089603     0.33100
H779        H  0.34195862  0.48320518  0.49860322     0.31900
H780        H  0.35330252  0.54100334  0.52603965     0.33600
H781        H  0.40899755  0.53935474  0.56160843     0.32600
H782        H  0.14349848  0.29843181  0.53233535     0.36600
H783        H  0.14731757  0.36825772  0.54448068     0.29300
H784        H  0.41187238  0.30720280  0.52888105     0.33600
H785        H  0.44814574  0.43810885  0.56143401     0.36400
H786        H  0.33563448  0.43346395  0.49663573     0.29000
H787        H  0.13858924  0.33785117  0.55767629     0.41900
H788        H  0.18354664  0.22041653  0.55993673     0.31900
H789        H  0.21280811  0.21504989  0.52759887     0.39600
H790        H  0.42624352  0.52105857  0.54923460     0.31400
H791        H  0.32862005  0.31202565  0.58762324     0.31500
H792        H  0.44338127  0.34903051  0.53882683     0.31700
C793        C  0.40969329  0.12756491  0.58961450     0.13400
C794        C  0.40206381  0.16309672  0.59445495     0.00300
C795        C  0.39495835  0.16645719  0.60871463     0.15300
C796        C  0.39051500  0.13154727  0.61781805     0.24700
C797        C  0.39329166  0.09334194  0.61263892    -0.41600
C798        C  0.40594509  0.09321547  0.59869645     0.31800
C799        C  0.39072093  0.18923923  0.58440156     0.00400
F800        F  0.38711702  0.20054370  0.61349185    -0.13900
F801        F  0.41042712  0.05736149  0.59361806    -0.14400
C802        C  0.34735191  0.16608205  0.57766561     0.15300
C803        C  0.33331261  0.19061000  0.56910219     0.24700
C804        C  0.36278022  0.23855534  0.56698777    -0.41500
C805        C  0.40706189  0.26143202  0.57327144     0.31700
C806        C  0.42080392  0.23689209  0.58207566     0.13400
F807        F  0.31754086  0.12010458  0.58002943    -0.13900
F808        F  0.43527860  0.30813065  0.57178397    -0.14400
F809        F  0.29010230  0.16798463  0.56333698    -0.16700
F810        F  0.46248185  0.25980405  0.58871843    -0.15300
F811        F  0.41605785  0.12359264  0.57584371    -0.15300
F812        F  0.37819372  0.13228864  0.63123507    -0.16700
C813        C  0.34006801  0.59894347  0.59931874     0.13400
C814        C  0.29935727  0.60208550  0.59964420     0.00300
C815        C  0.25797246  0.56580593  0.59409717     0.15300
C816        C  0.25749023  0.52765045  0.58780913     0.24700
C817        C  0.29888437  0.52538210  0.58664982    -0.41600
C818        C  0.34007736  0.56121136  0.59277435     0.31800
C819        C  0.30044703  0.64442468  0.60493263     0.00400
F820        F  0.21827052  0.56832115  0.59418944    -0.13900
F821        F  0.38085316  0.56085798  0.59206770    -0.14400
C822        C  0.32992922  0.68768864  0.59869887     0.15300
C823        C  0.32963989  0.72760687  0.60320772     0.24700
C824        C  0.29998633  0.72486985  0.61409122    -0.41500
C825        C  0.27013457  0.68137662  0.62022425     0.31700
C826        C  0.27027776  0.64147675  0.61563961     0.13400
F827        F  0.35799375  0.69098354  0.58794427    -0.13900
F828        F  0.24166808  0.67759294  0.63092147    -0.14400
F829        F  0.35741027  0.76865469  0.59667110    -0.16700
F830        F  0.24123778  0.59996495  0.62174912    -0.15300
F831        F  0.38005864  0.63292708  0.60515191    -0.15300
F832        F  0.21645030  0.49369596  0.58251170    -0.16700
C833        C  0.38057304  0.24869480  0.44567315     0.13400
C834        C  0.33971795  0.22157998  0.45342795     0.00300
C835        C  0.30587392  0.17814472  0.44817520     0.15300
C836        C  0.31233169  0.16213324  0.43540945     0.24700
C837        C  0.35350530  0.18872225  0.42764551    -0.41600
C838        C  0.38749493  0.23241765  0.43291249     0.31800
C839        C  0.33154639  0.23838821  0.46689041     0.00400
F840        F  0.26669148  0.15055528  0.45558728    -0.13900
F841        F  0.42799104  0.25888457  0.42594681    -0.14400
C842        C  0.29096456  0.24116761  0.46885905     0.15300
C843        C  0.28208541  0.25560362  0.48159239     0.24700
C844        C  0.31345581  0.26722182  0.49281743    -0.41500
C845        C  0.35464165  0.26508470  0.49069861     0.31700
C846        C  0.36336734  0.25061202  0.47790921     0.13400
F847        F  0.26012460  0.23071200  0.45828936    -0.13900
F848        F  0.38691866  0.27726875  0.50092703    -0.14400
F849        F  0.24336235  0.25962805  0.48267625    -0.16700
F850        F  0.40261146  0.24770652  0.47638540    -0.15300
F851        F  0.41367980  0.29110669  0.45041431    -0.15300
F852        F  0.27789272  0.12035226  0.43067817    -0.16700
C853        C  0.11771022  0.74552399  0.54084589     0.13400
C854        C  0.10322559  0.76538131  0.55119027     0.00300
C855        C  0.06459743  0.77098226  0.54870099     0.15300
C856        C  0.04044200  0.75657226  0.53606769     0.24700
C857        C  0.05402974  0.73539411  0.52568078    -0.41600
C858        C  0.09342362  0.73050256  0.52826641     0.31800
C859        C  0.12957685  0.78174759  0.56438104     0.00400
F860        F  0.05029133  0.79057336  0.55853296    -0.13900
F861        F  0.10810566  0.71014190  0.51881193    -0.14400
C862        C  0.17479894  0.82030828  0.56430304     0.15300
C863        C  0.19979833  0.83675363  0.57667545     0.24700
C864        C  0.18028682  0.81454767  0.58942016    -0.41500
C865        C  0.13536068  0.77514686  0.58945165     0.31700
C866        C  0.11003955  0.75908434  0.57701864     0.13400
F867        F  0.19457924  0.84246117  0.55221170    -0.13900
F868        F  0.11545558  0.75313990  0.60154055    -0.14400
F869        F  0.24351955  0.87418421  0.57612615    -0.16700
F870        F  0.06658811  0.72122395  0.57727882    -0.15300
F871        F  0.15487428  0.73956539  0.54309945    -0.15300
F872        F  0.00321881  0.76271056  0.53420454    -0.16700
C873        C  0.17213441  0.83174517  0.44345828     0.13400
C874        C  0.18801254  0.80895427  0.43452810     0.00300
C875        C  0.16967474  0.76074840  0.43570957     0.15300
C876        C  0.13470553  0.73534873  0.44544774     0.24700
C877        C  0.11611953  0.75756191  0.45353291    -0.41600
C878        C  0.13574349  0.80608855  0.45271525     0.31800
C879        C  0.22209399  0.83612547  0.42365396     0.00400
F880        F  0.18446225  0.73819136  0.42712932    -0.13900
F881        F  0.11848463  0.82830003  0.46049090    -0.14400
C882        C  0.26648736  0.87159658  0.42760884     0.15300
C883        C  0.29416723  0.90641108  0.41820421     0.24700
C884        C  0.27787130  0.90597248  0.40469419    -0.41500
C885        C  0.23572251  0.86776506  0.40023648     0.31700
C886        C  0.20771339  0.83289547  0.40973512     0.13400
F887        F  0.28110294  0.87474331  0.44095137    -0.13900
F888        F  0.21945540  0.86690376  0.38722894    -0.14400
F889        F  0.33530621  0.94272328  0.42261759    -0.16700
F890        F  0.16472372  0.79876621  0.40574274    -0.15300
F891        F  0.19019031  0.87859543  0.44262401    -0.15300
F892        F  0.11634230  0.68848529  0.44621129    -0.16700
C893        C  0.72649691  0.39265199  0.42326552     0.13400
C894        C  0.68114612  0.38410741  0.42582060     0.00300
C895        C  0.67455961  0.41418617  0.43453883     0.15300
C896        C  0.71261665  0.45230245  0.44067087     0.24700
C897        C  0.75839760  0.46047977  0.43859596    -0.41600
C898        C  0.76474867  0.42991676  0.42979396     0.31800
C899        C  0.64033354  0.34324705  0.41970529     0.00400
F900        F  0.63091256  0.40601385  0.43737825    -0.13900
F901        F  0.80780013  0.43579199  0.42746879    -0.14400
C902        C  0.63148432  0.29815884  0.42271560     0.15300
C903        C  0.59246934  0.25931364  0.41711694     0.24700
C904        C  0.56087183  0.26490620  0.40860362    -0.41500
C905        C  0.56967858  0.31051734  0.40587065     0.31700
C906        C  0.60904540  0.34913150  0.41132999     0.13400
F907        F  0.66010798  0.29176277  0.43139954    -0.13900
F908        F  0.54082582  0.31824111  0.39769198    -0.14400
F909        F  0.58576093  0.21638375  0.42014661    -0.16700
F910        F  0.61683745  0.39249296  0.40833100    -0.15300
F911        F  0.73372673  0.36506286  0.41434281    -0.15300
F912        F  0.70405648  0.48065207  0.44880289    -0.16700
C913        C  0.14991109  0.48865463  0.50799719     0.13400
C914        C  0.12722486  0.50030091  0.51841442     0.00300
C915        C  0.14411859  0.50574345  0.53210305     0.15300
C916        C  0.18158445  0.49914401  0.53536929     0.24700
C917        C  0.20289484  0.48506950  0.52518689    -0.41600
C918        C  0.18728513  0.48105493  0.51135031     0.31800
C919        C  0.08763235  0.50919084  0.51527351     0.00400
F920        F  0.12319581  0.51601395  0.54257978    -0.13900
F921        F  0.20669018  0.46781000  0.50118306    -0.14400
C922        C  0.04706453  0.47691080  0.50797368     0.15300
C923        C  0.01072090  0.48663407  0.50524443     0.24700
C924        C  0.01372508  0.52834120  0.50997328    -0.41500
C925        C  0.05336787  0.55937649  0.51773090     0.31700
C926        C  0.08996843  0.55050702  0.52006877     0.13400
F927        F  0.04294513  0.43640930  0.50322596    -0.13900
F928        F  0.05821753  0.60046883  0.52223522    -0.14400
F929        F  0.97411354  0.45677252  0.49723878    -0.16700
F930        F  0.12921086  0.58396802  0.52637185    -0.15300
F931        F  0.13597571  0.48463939  0.49456245    -0.15300
F932        F  0.19607673  0.50508536  0.54880742    -0.16700
C933        C  0.53486873  0.44230657  0.50263074     0.13400
C934        C  0.57457291  0.48194204  0.50799808     0.00300
C935        C  0.56746397  0.51494127  0.51533979     0.15300
C936        C  0.52191893  0.50702687  0.51789415     0.24700
C937        C  0.48250573  0.46672580  0.51278796    -0.41600
C938        C  0.48992478  0.43522999  0.50484357     0.31800
C939        C  0.62274593  0.48907414  0.50524036     0.00400
F940        F  0.60456642  0.55475748  0.52012790    -0.13900
F941        F  0.45284937  0.39511199  0.50013586    -0.14400
C942        C  0.63480880  0.48354252  0.49165485     0.15300
C943        C  0.67857487  0.48907644  0.48865508     0.24700
C944        C  0.71398096  0.50416232  0.49882246    -0.41500
C945        C  0.70200870  0.50848777  0.51259754     0.31700
C946        C  0.65662934  0.50034647  0.51581310     0.13400
F947        F  0.60491590  0.47510905  0.48094627    -0.13900
F948        F  0.73462912  0.52272110  0.52278786    -0.14400
F949        F  0.68718860  0.48192812  0.47537428    -0.16700
F950        F  0.64609623  0.50401024  0.52921905    -0.15300
F951        F  0.53918415  0.40879254  0.49576261    -0.15300
F952        F  0.51625263  0.53732531  0.52603952    -0.16700
C953        C  0.09967672  0.33771091  0.64385129     0.13400
C954        C  0.09682712  0.29799959  0.63753369     0.00300
C955        C  0.07272942  0.25497832  0.64445562     0.15300
C956        C  0.05040962  0.25140181  0.65713147     0.24700
C957        C  0.05150421  0.29075397  0.66316606    -0.41600
C958        C  0.07701211  0.33412832  0.65647244     0.31800
C959        C  0.11891241  0.30162557  0.62374653     0.00400
F960        F  0.06979024  0.21602764  0.63879014    -0.13900
F961        F  0.07860586  0.37285650  0.66183891    -0.14400
C962        C  0.15194130  0.28717870  0.62204841     0.15300
C963        C  0.17450783  0.29284531  0.60927617     0.24700
C964        C  0.16467624  0.31335992  0.59786579    -0.41500
C965        C  0.13009908  0.32591834  0.59944247     0.31700
C966        C  0.10760140  0.32025006  0.61223755     0.13400
F967        F  0.16383089  0.26927404  0.63295038    -0.13900
F968        F  0.11769212  0.34334903  0.58854578    -0.14400
F969        F  0.20746877  0.28001355  0.60833148    -0.16700
F970        F  0.07449170  0.33282342  0.61336629    -0.15300
F971        F  0.12472667  0.38018705  0.63781440    -0.15300
F972        F  0.02758488  0.20925080  0.66349176    -0.16700
C973        C  0.04127879  0.55115614  0.68899772     0.13400
C974        C  0.07637036  0.56344685  0.67885697     0.00300
C975        C  0.07354390  0.52776737  0.67019694     0.15300
C976        C  0.03830393  0.48101119  0.67211362     0.24700
C977        C  0.00446142  0.46827045  0.68267775    -0.41600
C978        C  0.00602076  0.50425222  0.69092970     0.31800
C979        C  0.11503782  0.61336924  0.67711195     0.00400
F980        F  0.10548355  0.53805109  0.65997000    -0.13900
F981        F  0.97557620  0.49363219  0.70160285    -0.14400
C982        C  0.16274154  0.62637837  0.67797711     0.15300
C983        C  0.19838299  0.67291929  0.67552052     0.24700
C984        C  0.18717869  0.70737507  0.67195905    -0.41500
C985        C  0.13957401  0.69442713  0.67151420     0.31700
C986        C  0.10422651  0.64841220  0.67410427     0.13400
F987        F  0.17488996  0.59377108  0.68087541    -0.13900
F988        F  0.12708696  0.72618512  0.66776207    -0.14400
F989        F  0.24362668  0.68353740  0.67570575    -0.16700
F990        F  0.05906632  0.63747437  0.67278181    -0.15300
F991        F  0.04270815  0.58435322  0.69761395    -0.15300
F992        F  0.03886170  0.44745494  0.66412435    -0.16700
C993        C  0.53147842  0.06790003  0.69263774     0.13400
C994        C  0.57114304  0.06756431  0.68737120     0.00300
C995        C  0.56363837  0.02810375  0.67960077     0.15300
C996        C  0.51803589  0.99191362  0.67638135     0.24700
C997        C  0.47860900  0.99350706  0.68116443    -0.41600
C998        C  0.48618430  0.03146991  0.68961927     0.31800
C999        C  0.61985334  0.10801593  0.69005013     0.00400
F1000       F  0.60059057  0.02483724  0.67493518    -0.13900
F1001       F  0.44916311  0.03501331  0.69410594    -0.14400
C1002       C  0.63416471  0.12499545  0.70363170     0.15300
C1003       C  0.67961990  0.16136813  0.70635613     0.24700
C1004       C  0.71338838  0.18172435  0.69568106    -0.41500
C1005       C  0.69875334  0.16620096  0.68196948     0.31700
C1006       C  0.65259758  0.12994741  0.67919499     0.13400
F1007       F  0.60487124  0.10460561  0.71452658    -0.13900
F1008       F  0.72963316  0.18417490  0.67133559    -0.14400
F1009       F  0.69121616  0.17554748  0.71974623    -0.16700
F1010       F  0.64010954  0.11582706  0.66585874    -0.15300
F1011       F  0.53624074  0.10494630  0.70005434    -0.15300
F1012       F  0.51252282  0.95686582  0.66783240    -0.16700
C1013       C  0.31540464  0.14936536  0.72805869     0.13400
C1014       C  0.33664152  0.12313052  0.72468493     0.00300
C1015       C  0.36381698  0.11697342  0.73470686     0.15300
C1016       C  0.37078621  0.13777223  0.74782589     0.24700
C1017       C  0.34974304  0.16451688  0.75133793    -0.41600
C1018       C  0.32161190  0.16968416  0.74123084     0.31800
C1019       C  0.32907272  0.10048824  0.71090674     0.00400
F1020       F  0.38280840  0.08979889  0.73186691    -0.13900
F1021       F  0.30039060  0.19488849  0.74392622    -0.14400
C1022       C  0.36649316  0.11310048  0.70174918     0.15300
C1023       C  0.36019747  0.08819423  0.68939201     0.24700
C1024       C  0.31593115  0.05029910  0.68586110    -0.41500
C1025       C  0.27810456  0.03928561  0.69490617     0.31700
C1026       C  0.28476561  0.06408625  0.70726221     0.13400
F1027       F  0.40948156  0.14901217  0.70494668    -0.13900
F1028       F  0.23486305  0.00287925  0.69227223    -0.14400
F1029       F  0.39804759  0.10009400  0.68126632    -0.16700
F1030       F  0.24825434  0.05084468  0.71607352    -0.15300
F1031       F  0.28891874  0.15568350  0.71850443    -0.15300
F1032       F  0.39799738  0.13129410  0.75706014    -0.16700
C1033       C  0.16199275  0.39643891  0.75917148     0.13400
C1034       C  0.19219924  0.37869332  0.75740881     0.00300
C1035       C  0.19177946  0.35680249  0.74483167     0.15300
C1036       C  0.15822631  0.34851925  0.73468950     0.24700
C1037       C  0.12559569  0.36308503  0.73691820    -0.41600
C1038       C  0.12896690  0.38885924  0.74893513     0.31800
C1039       C  0.21708911  0.37406629  0.76943443     0.00400
F1040       F  0.22089336  0.33943891  0.74300348    -0.13900
F1041       F  0.09678871  0.40197228  0.75145730    -0.14400
C1042       C  0.19438997  0.33369557  0.77759538     0.15300
C1043       C  0.21981063  0.32269774  0.78687567     0.24700
C1044       C  0.26815845  0.35235188  0.78827266    -0.41500
C1045       C  0.29000481  0.39495300  0.78107057     0.31700
C1046       C  0.26456101  0.40560219  0.77160071     0.13400
F1047       F  0.14830462  0.30302237  0.77569257    -0.13900
F1048       F  0.33683655  0.42356128  0.78198348    -0.14400
F1049       F  0.19797172  0.28128873  0.79366992    -0.16700
F1050       F  0.28683975  0.44481487  0.76380210    -0.15300
F1051       F  0.16173395  0.41730376  0.77130427    -0.15300
F1052       F  0.15456768  0.32225098  0.72339803    -0.16700
C1053       C  0.69496571  0.24366732  0.76440351     0.13400
C1054       C  0.69034727  0.28318406  0.76231671     0.00300
C1055       C  0.72693513  0.32284779  0.75603703     0.15300
C1056       C  0.76665492  0.32248797  0.75143346     0.24700
C1057       C  0.77031517  0.28214350  0.75280944    -0.41600
C1058       C  0.73448951  0.24297977  0.75956029     0.31800
C1059       C  0.64686623  0.28286081  0.76607689     0.00400
F1060       F  0.72323606  0.36129655  0.75370199    -0.13900
F1061       F  0.73769006  0.20406865  0.76141866    -0.14400
C1062       C  0.64864534  0.31847684  0.77446936     0.15300
C1063       C  0.60823785  0.32030489  0.77719379     0.24700
C1064       C  0.56513398  0.28599796  0.77180146    -0.41500
C1065       C  0.56301256  0.24965151  0.76371175     0.31700
C1066       C  0.60367430  0.24836137  0.76073476     0.13400
F1067       F  0.68938718  0.35075765  0.78037860    -0.13900
F1068       F  0.52155002  0.21539666  0.75873369    -0.14400
F1069       F  0.61080544  0.35398496  0.78584451    -0.16700
F1070       F  0.60091615  0.21371241  0.75251080    -0.15300
F1071       F  0.66109398  0.20571151  0.77106118    -0.15300
F1072       F  0.80016646  0.36073510  0.74479376    -0.16700
C1073       C  0.66585728  0.81185716  0.07350813     0.13400
C1074       C  0.62761526  0.79154466  0.08265133     0.00300
C1075       C  0.59903432  0.74281981  0.08287502     0.15300
C1076       C  0.61042703  0.71471645  0.07474822     0.24700
C1077       C  0.65054884  0.73520672  0.06637673    -0.41600
C1078       C  0.67722854  0.78388085  0.06547523     0.31800
C1079       C  0.62230816  0.82148980  0.09307951     0.00400
F1080       F  0.56155567  0.72256179  0.09145933    -0.13900
F1081       F  0.71602581  0.80427458  0.05739605    -0.14400
C1082       C  0.61885517  0.86003216  0.08870826     0.15300
C1083       C  0.62887866  0.89636300  0.09794792     0.24700
C1084       C  0.64144523  0.89418794  0.11175860    -0.41500
C1085       C  0.63950538  0.85335246  0.11657715     0.31700
C1086       C  0.63009078  0.81711806  0.10725067     0.13400
F1087       F  0.60930163  0.86404128  0.07522907    -0.13900
F1088       F  0.65148172  0.85060334  0.12988313    -0.14400
F1089       F  0.62972658  0.93533076  0.09317033    -0.16700
F1090       F  0.63315918  0.77994666  0.11176277    -0.15300
F1091       F  0.69452428  0.85878802  0.07319266    -0.15300
F1092       F  0.58468839  0.66767112  0.07594974    -0.16700
C1093       C  0.78985020  0.42514047  0.08914145     0.13400
C1094       C  0.74849607  0.38251219  0.09113043     0.00300
C1095       C  0.70558184  0.37894890  0.08790671     0.15300
C1096       C  0.70388229  0.41654145  0.08215222     0.24700
C1097       C  0.74523379  0.45914876  0.07976930    -0.41600
C1098       C  0.78828119  0.46324173  0.08352966     0.31800
C1099       C  0.74961279  0.34127844  0.09638050     0.00400
F1100       F  0.66503764  0.33876917  0.09032915    -0.13900
F1101       F  0.82887314  0.50392122  0.08174896    -0.14400
C1102       C  0.77018661  0.34296907  0.10926280     0.15300
C1103       C  0.76959127  0.30339209  0.11445178     0.24700
C1104       C  0.74753817  0.26122077  0.10695987    -0.41500
C1105       C  0.72649502  0.25938816  0.09413131     0.31700
C1106       C  0.72802707  0.29929083  0.08879985     0.13400
F1107       F  0.78889281  0.38232918  0.11711640    -0.13900
F1108       F  0.70461966  0.21906766  0.08674510    -0.14400
F1109       F  0.78828825  0.30560867  0.12718067    -0.16700
F1110       F  0.70811528  0.29690415  0.07626436    -0.15300
F1111       F  0.83181848  0.42954751  0.09232342    -0.15300
F1112       F  0.66156922  0.41035413  0.07849466    -0.16700
C1113       C  0.90547862  0.64976265  0.14871964     0.13400
C1114       C  0.92332976  0.68370253  0.13823439     0.00300
C1115       C  0.96449865  0.72591989  0.14083350     0.15300
C1116       C  0.98840710  0.73344930  0.15345416     0.24700
C1117       C  0.97221352  0.69837825  0.16376895    -0.41600
C1118       C  0.92954771  0.65687023  0.16132568     0.31800
C1119       C  0.89853960  0.67565749  0.12470463     0.00400
F1120       F  0.98232732  0.75960750  0.13095203    -0.13900
F1121       F  0.91084456  0.62296037  0.17111377    -0.14400
C1122       C  0.88001855  0.70388887  0.12079363     0.15300
C1123       C  0.85698238  0.69702489  0.10805244     0.24700
C1124       C  0.85217709  0.66176402  0.09874301    -0.41500
C1125       C  0.87042802  0.63303789  0.10283123     0.31700
C1126       C  0.89340920  0.64005200  0.11563208     0.13400
F1127       F  0.88371468  0.73794960  0.12947029    -0.13900
F1128       F  0.86562606  0.59761697  0.09457145    -0.14400
F1129       F  0.83951349  0.72525249  0.10490903    -0.16700
F1130       F  0.91133707  0.61242978  0.11907788    -0.15300
F1131       F  0.86429451  0.60979444  0.14678743    -0.15300
F1132       F  0.02815713  0.77487351  0.15532789    -0.16700
C1133       C  0.95782754  0.46345946  0.16595676     0.13400
C1134       C  0.95547712  0.42917350  0.17509187     0.00300
C1135       C  0.99066438  0.44287484  0.18524459     0.15300
C1136       C  0.02600216  0.48983011  0.18659312     0.24700
C1137       C  0.02740848  0.52439937  0.17777708    -0.41600
C1138       C  0.99299710  0.51042645  0.16737820     0.31800
C1139       C  0.91774478  0.37899874  0.17362237     0.00400
F1140       F  0.98936489  0.41110728  0.19438772    -0.13900
F1141       F  0.99158525  0.54301280  0.15918703    -0.14400
C1142       C  0.92982174  0.34476798  0.17079037     0.15300
C1143       C  0.89539243  0.29857297  0.16800120     0.24700
C1144       C  0.84750533  0.28485170  0.16800072    -0.41500
C1145       C  0.83509156  0.31841157  0.17159669     0.31700
C1146       C  0.86982469  0.36499779  0.17441504     0.13400
F1147       F  0.97538237  0.35665378  0.16994981    -0.13900
F1148       F  0.78959787  0.30690027  0.17144347    -0.14400
F1149       F  0.90915533  0.26742762  0.16463644    -0.16700
F1150       F  0.85662051  0.39659498  0.17769654    -0.15300
F1151       F  0.92555341  0.45159294  0.15574616    -0.15300
F1152       F  0.05648183  0.50217219  0.19733664    -0.16700
C1153       C  0.36811597  0.90640029  0.18204031     0.13400
C1154       C  0.40207029  0.89499094  0.17803907     0.00300
C1155       C  0.38755626  0.84717809  0.17614723     0.15300
C1156       C  0.34107747  0.81198966  0.17897003     0.24700
C1157       C  0.30768529  0.82374672  0.18335929    -0.41600
C1158       C  0.32186406  0.87154678  0.18457191     0.31800
C1159       C  0.45251337  0.93305554  0.17663294     0.00400
F1160       F  0.41855973  0.83440219  0.17178625    -0.13900
F1161       F  0.29114950  0.88465948  0.18901345    -0.14400
C1162       C  0.48798643  0.93156438  0.18431428     0.15300
C1163       C  0.53492367  0.96709960  0.18305186     0.24700
C1164       C  0.54812994  0.00542228  0.17411127    -0.41500
C1165       C  0.51245460  0.00835394  0.16705342     0.31700
C1166       C  0.46543842  0.97251487  0.16817256     0.13400
F1167       F  0.47736388  0.89524367  0.19294521    -0.13900
F1168       F  0.52351051  0.04435159  0.15825364    -0.14400
F1169       F  0.56819684  0.96284895  0.19004707    -0.16700
F1170       F  0.43280253  0.97512509  0.16031526    -0.15300
F1171       F  0.38031183  0.95152897  0.18435077    -0.15300
F1172       F  0.32968147  0.76656246  0.17842196    -0.16700
C1173       C  0.25237715  0.88573321  0.28003729     0.13400
C1174       C  0.21994553  0.88774393  0.28904122     0.00300
C1175       C  0.17316682  0.86679803  0.28495298     0.15300
C1176       C  0.15870688  0.84366178  0.27221594     0.24700
C1177       C  0.19072501  0.84014556  0.26321986    -0.41600
C1178       C  0.23800179  0.86209516  0.26727555     0.31800
C1179       C  0.23445138  0.91091969  0.30282047     0.00400
F1180       F  0.14085929  0.86707703  0.29359397    -0.13900
F1181       F  0.27023431  0.85956719  0.25916727    -0.14400
C1182       C  0.22815419  0.94870889  0.30608999     0.15300
C1183       C  0.24232545  0.97107420  0.31897552     0.24700
C1184       C  0.26413232  0.95674190  0.32889089    -0.41500
C1185       C  0.26825539  0.91720543  0.32577787     0.31700
C1186       C  0.25359931  0.89469215  0.31287775     0.13400
F1187       F  0.20962331  0.96509285  0.29658230    -0.13900
F1188       F  0.28725515  0.90061432  0.33505057    -0.14400
F1189       F  0.23569046  0.00770205  0.32149002    -0.16700
F1190       F  0.25809790  0.85687468  0.31018027    -0.15300
F1191       F  0.29803301  0.90638700  0.28367826    -0.15300
F1192       F  0.11274823  0.82362532  0.26897577    -0.16700
C1193       C  0.77122714  0.66287231  0.41068524     0.13400
C1194       C  0.79868506  0.67762668  0.39856251     0.00300
C1195       C  0.84496445  0.68703651  0.39925031     0.15300
C1196       C  0.86346401  0.68169693  0.41173743     0.24700
C1197       C  0.83611351  0.66695798  0.42393211    -0.41600
C1198       C  0.78984113  0.65801821  0.42325274     0.31800
C1199       C  0.77993433  0.68506820  0.38533469     0.00400
F1200       F  0.87267250  0.70221385  0.38782452    -0.13900
F1201       F  0.76276797  0.64539998  0.43481687    -0.14400
C1202       C  0.76241366  0.71591712  0.38494382     0.15300
C1203       C  0.74588147  0.72413278  0.37250059     0.24700
C1204       C  0.74711597  0.70220997  0.36005444    -0.41500
C1205       C  0.76492822  0.67150067  0.36042229     0.31700
C1206       C  0.78098113  0.66288190  0.37294017     0.13400
F1207       F  0.76215824  0.73894405  0.39660524    -0.13900
F1208       F  0.76757463  0.65040163  0.34861815    -0.14400
F1209       F  0.72749931  0.75271929  0.37274725    -0.16700
F1210       F  0.79722467  0.63249768  0.37297206    -0.15300
F1211       F  0.72606520  0.65253652  0.41032402    -0.15300
F1212       F  0.90803363  0.69016295  0.41175706    -0.16700
C1213       C  0.71222306  0.84502675  0.22890210     0.13400
C1214       C  0.69880992  0.87867278  0.22676072     0.00300
C1215       C  0.68291400  0.89354186  0.23813820     0.15300
C1216       C  0.67973843  0.87468972  0.25135362     0.24700
C1217       C  0.69272894  0.84061887  0.25354958    -0.41600
C1218       C  0.70903218  0.82601294  0.24211460     0.31800
C1219       C  0.70233569  0.89904575  0.21275221     0.00400
F1220       F  0.67127259  0.92715846  0.23651652    -0.13900
F1221       F  0.72023144  0.79199740  0.24353054    -0.14400
C1222       C  0.66326195  0.89742301  0.20640760     0.15300
C1223       C  0.66737784  0.91859055  0.19346701     0.24700
C1224       C  0.71109507  0.94314059  0.18680622    -0.41500
C1225       C  0.74969686  0.94310932  0.19300830     0.31700
C1226       C  0.74533833  0.92144641  0.20581352     0.13400
F1227       F  0.62122687  0.87615717  0.21289448    -0.13900
F1228       F  0.79223967  0.96507347  0.18684181    -0.14400
F1229       F  0.62896447  0.91687352  0.18783803    -0.16700
F1230       F  0.78389590  0.92451294  0.21179931    -0.15300
F1231       F  0.72745928  0.82972025  0.21810057    -0.15300
F1232       F  0.66412795  0.89016123  0.26201439    -0.16700
C1233       C  0.88398363  0.60269942  0.26201859     0.13400
C1234       C  0.84983140  0.61366331  0.25811679     0.00300
C1235       C  0.84632475  0.62368329  0.24410012     0.15300
C1236       C  0.87991775  0.62782455  0.23444886     0.24700
C1237       C  0.91690086  0.62165345  0.23878096    -0.41600
C1238       C  0.91708146  0.60632110  0.25237816     0.31800
C1239       C  0.82347137  0.62259900  0.26890074     0.00400
F1240       F  0.81327587  0.63410623  0.24010871    -0.13900
F1241       F  0.95216430  0.59927874  0.25665080    -0.14400
C1242       C  0.84715024  0.66166258  0.27764500     0.15300
C1243       C  0.82215606  0.67555660  0.28619898     0.24700
C1244       C  0.77328870  0.64968511  0.28647917    -0.41500
C1245       C  0.74976237  0.60881943  0.27847638     0.31700
C1246       C  0.77473622  0.59557735  0.26962611     0.13400
F1247       F  0.89436758  0.68804011  0.27722712    -0.13900
F1248       F  0.70246618  0.58394585  0.27838752    -0.14400
F1249       F  0.84547132  0.71542798  0.29373840    -0.16700
F1250       F  0.75138252  0.55751447  0.26136593    -0.15300
F1251       F  0.88747495  0.59213089  0.27542342    -0.15300
F1252       F  0.87932598  0.64296102  0.22139264    -0.16700
C1253       C  0.32690967  0.67330098  0.25202947     0.13400
C1254       C  0.36998357  0.71111429  0.24793261     0.00300
C1255       C  0.37068623  0.74567639  0.23940724     0.15300
C1256       C  0.32918091  0.74336223  0.23534057     0.24700
C1257       C  0.28566447  0.70649601  0.23984732    -0.41600
C1258       C  0.28505824  0.67079293  0.24797244     0.31800
C1259       C  0.41423091  0.71594342  0.25313440     0.00400
F1260       F  0.41180414  0.78178260  0.23493342    -0.13900
F1261       F  0.24419593  0.63382258  0.25220099    -0.14400
C1262       C  0.42591172  0.68129817  0.25055592     0.15300
C1263       C  0.46611847  0.68456044  0.25641981     0.24700
C1264       C  0.49546005  0.72271685  0.26501589    -0.41500
C1265       C  0.48480520  0.75872258  0.26683472     0.31700
C1266       C  0.44443115  0.75501728  0.26110119     0.13400
F1267       F  0.39791612  0.64387053  0.24252139    -0.13900
F1268       F  0.51214607  0.79683215  0.27469806    -0.14400
F1269       F  0.47545368  0.64967938  0.25393003    -0.16700
F1270       F  0.43358828  0.78866900  0.26395275    -0.15300
F1271       F  0.32544559  0.63954094  0.26034637    -0.15300
F1272       F  0.33191528  0.77699051  0.22669699    -0.16700
C1273       C  0.46862737  0.34270572  0.33347747     0.13400
C1274       C  0.50053442  0.38357668  0.34075140     0.00300
C1275       C  0.52904850  0.37928273  0.35084309     0.15300
C1276       C  0.52362964  0.33550100  0.35423596     0.24700
C1277       C  0.49033324  0.29447801  0.34745138    -0.41600
C1278       C  0.46384129  0.29887852  0.33673781     0.31800
C1279       C  0.50508561  0.43066232  0.33775991     0.00400
F1280       F  0.56218561  0.41763407  0.35757662    -0.13900
F1281       F  0.43071304  0.26019657  0.33013307    -0.14400
C1282       C  0.50540615  0.46002515  0.34857449     0.15300
C1283       C  0.51603995  0.50633960  0.34586960     0.24700
C1284       C  0.52639248  0.52436958  0.33229226    -0.41500
C1285       C  0.52176252  0.49372157  0.32141956     0.31700
C1286       C  0.51176096  0.44791578  0.32408152     0.13400
F1287       F  0.49670704  0.44432538  0.36186545    -0.13900
F1288       F  0.53002168  0.50938287  0.30812037    -0.14400
F1289       F  0.51897472  0.53429397  0.35661761    -0.16700
F1290       F  0.51215920  0.42172101  0.31327764    -0.15300
F1291       F  0.44001538  0.34457087  0.32372958    -0.15300
F1292       F  0.54990450  0.33287273  0.36463546    -0.16700
C1293       C  0.50333095  0.87126048  0.31827411     0.13400
C1294       C  0.50272656  0.88463276  0.33208397     0.00300
C1295       C  0.50960770  0.85921248  0.34272111     0.15300
C1296       C  0.51933062  0.82303328  0.33949487     0.24700
C1297       C  0.52186743  0.81112831  0.32554558    -0.41600
C1298       C  0.51179833  0.83485686  0.31508862     0.31800
C1299       C  0.49348713  0.92409716  0.33505613     0.00400
F1300       F  0.50702362  0.86947430  0.35623969    -0.13900
F1301       F  0.51161594  0.82381308  0.30149859    -0.14400
C1302       C  0.45298495  0.92247343  0.32981051     0.15300
C1303       C  0.44354679  0.95862941  0.33247635     0.24700
C1304       C  0.47431265  0.99797195  0.34040523    -0.41500
C1305       C  0.51574470  0.00069957  0.34525195     0.31700
C1306       C  0.52537324  0.96430453  0.34253576     0.13400
F1307       F  0.42121405  0.88466178  0.32255777    -0.13900
F1308       F  0.54534462  0.03703048  0.35339821    -0.14400
F1309       F  0.40242343  0.95380609  0.32802901    -0.16700
F1310       F  0.56574136  0.96822940  0.34730032    -0.15300
F1311       F  0.49741723  0.89482231  0.30767569    -0.15300
F1312       F  0.52825131  0.80126362  0.34997117    -0.16700
C1313       C  0.80068356  0.12488447  0.78730020     0.13400
C1314       C  0.83377910  0.12362818  0.79613160     0.00300
C1315       C  0.87950922  0.14114791  0.79128534     0.15300
C1316       C  0.89200162  0.15953515  0.77785623     0.24700
C1317       C  0.85890977  0.16102114  0.76886692    -0.41600
C1318       C  0.81290722  0.14312530  0.77383659     0.31800
C1319       C  0.81940104  0.10043430  0.80991151     0.00400
F1320       F  0.91231680  0.14062789  0.79962244    -0.13900
F1321       F  0.77934216  0.14293822  0.76570909    -0.14400
C1322       C  0.82200481  0.06014753  0.81248273     0.15300
C1323       C  0.80340691  0.03449900  0.82466135     0.24700
C1324       C  0.78107651  0.04823970  0.83460606    -0.41500
C1325       C  0.78154028  0.09066714  0.83241798     0.31700
C1326       C  0.80028285  0.11628086  0.82015898     0.13400
F1327       F  0.84016468  0.04393301  0.80276347    -0.13900
F1328       F  0.76297682  0.10701983  0.84195831    -0.14400
F1329       F  0.80534559  0.99479778  0.82626035    -0.16700
F1330       F  0.79898311  0.15617978  0.81816312    -0.15300
F1331       F  0.75592269  0.10712945  0.79159851    -0.15300
F1332       F  0.93670915  0.17573458  0.77374858    -0.16700
C1333       C  0.58926570  0.07545998  0.82826115     0.13400
C1334       C  0.54728778  0.07228459  0.83278560     0.00300
C1335       C  0.51416672  0.03063681  0.83933422     0.15300
C1336       C  0.52336114  0.99380978  0.84162189     0.24700
C1337       C  0.56610535  0.99783810  0.83756420    -0.41600
C1338       C  0.59871622  0.03917134  0.83077060     0.31800
C1339       C  0.53778209  0.11175235  0.83021267     0.00400
F1340       F  0.47316357  0.02595212  0.84379766    -0.13900
F1341       F  0.64164915  0.04598425  0.82756174    -0.14400
C1342       C  0.53848044  0.12710185  0.81657768     0.15300
C1343       C  0.52733745  0.16193662  0.81377518     0.24700
C1344       C  0.51508007  0.18314058  0.82451962    -0.41500
C1345       C  0.51694417  0.16978289  0.83830886     0.31700
C1346       C  0.52793081  0.13431848  0.84111168     0.13400
F1347       F  0.54820140  0.10691732  0.80576810    -0.13900
F1348       F  0.50604355  0.18934420  0.84901495    -0.14400
F1349       F  0.52736262  0.17409636  0.80030136    -0.16700
F1350       F  0.52880446  0.12191538  0.85449024    -0.15300
F1351       F  0.62253772  0.11502864  0.82209967    -0.15300
F1352       F  0.49205417  0.95579821  0.84883642    -0.16700
C1353       C  0.50817806  0.52987568  0.85018734     0.13400
C1354       C  0.53608404  0.56352260  0.84022341     0.00300
C1355       C  0.55474300  0.54939061  0.82928940     0.15300
C1356       C  0.54376937  0.50254906  0.82797204     0.24700
C1357       C  0.51340302  0.46848962  0.83743346    -0.41600
C1358       C  0.49625012  0.48294928  0.84863536     0.31800
C1359       C  0.54432806  0.61261138  0.84103801     0.00400
F1360       F  0.58071988  0.58017966  0.81924516    -0.13900
F1361       F  0.46458885  0.45069484  0.85745071    -0.14400
C1362       C  0.58986717  0.65119387  0.84135818     0.15300
C1363       C  0.59756797  0.69664417  0.84335302     0.24700
C1364       C  0.56008613  0.70507401  0.84504888    -0.41500
C1365       C  0.51450874  0.66687581  0.84402750     0.31700
C1366       C  0.50670625  0.62129033  0.84194439     0.13400
F1367       F  0.62714993  0.64464082  0.84068817    -0.13900
F1368       F  0.47747900  0.67327185  0.84595616    -0.14400
F1369       F  0.64204478  0.73234670  0.84466699    -0.16700
F1370       F  0.46218943  0.58535007  0.84116415    -0.15300
F1371       F  0.49096992  0.54208398  0.86121969    -0.15300
F1372       F  0.55898393  0.48958751  0.81662613    -0.16700
C1373       C  0.72060022  0.74714531  0.97023625     0.13400
C1374       C  0.67882633  0.74784103  0.96869956     0.00300
C1375       C  0.64793834  0.73471033  0.98002095     0.15300
C1376       C  0.65823436  0.72018481  0.99256171     0.24700
C1377       C  0.70026714  0.71940640  0.99416242    -0.41600
C1378       C  0.73141901  0.73348713  0.98279505     0.31800
C1379       C  0.66864448  0.76400163  0.95543471     0.00400
F1380       F  0.60740115  0.73537362  0.97887014    -0.13900
F1381       F  0.77217231  0.73315900  0.98362821    -0.14400
C1382       C  0.66613857  0.74141277  0.94276780     0.15300
C1383       C  0.65932997  0.75858254  0.93019402     0.24700
C1384       C  0.65559258  0.79903234  0.93005448    -0.41500
C1385       C  0.65701169  0.82087630  0.94278384     0.31700
C1386       C  0.66358045  0.80362253  0.95530843     0.13400
F1387       F  0.67080736  0.70297120  0.94256457    -0.13900
F1388       F  0.65182630  0.85901739  0.94313165    -0.14400
F1389       F  0.65825131  0.73674754  0.91812731    -0.16700
F1390       F  0.66674944  0.82673428  0.96729633    -0.15300
F1391       F  0.75150383  0.76050280  0.95957542    -0.15300
F1392       F  0.62701748  0.70712414  0.00312625    -0.16700
C1393       C  0.97944907  0.20345580  0.04608460     0.13400
C1394       C  0.94829569  0.21725946  0.05107328     0.00300
C1395       C  0.93964495  0.24739767  0.04302506     0.15300
C1396       C  0.96221790  0.26412331  0.03028745     0.24700
C1397       C  0.99454731  0.25144149  0.02535858    -0.41600
C1398       C  0.00249001  0.22044848  0.03339343     0.31800
C1399       C  0.92386476  0.19956839  0.06451787     0.00400
F1400       F  0.90909108  0.26062200  0.04752274    -0.13900
F1401       F  0.03275667  0.20665733  0.02904596    -0.14400
C1402       C  0.92968443  0.23044330  0.07537899     0.15300
C1403       C  0.90402534  0.21398425  0.08771176     0.24700
C1404       C  0.87207923  0.16600579  0.08948996    -0.41500
C1405       C  0.86736012  0.13514533  0.07858275     0.31700
C1406       C  0.89285590  0.15184154  0.06628062     0.13400
F1407       F  0.96021048  0.27673915  0.07399745    -0.13900
F1408       F  0.83680355  0.08873141  0.07949042    -0.14400
F1409       F  0.91033015  0.24528024  0.09780971    -0.16700
F1410       F  0.88578516  0.12143668  0.05580860    -0.15300
F1411       F  0.98843759  0.17435382  0.05368757    -0.15300
F1412       F  0.95343774  0.29405366  0.02305966    -0.16700
C1413       C  0.23218011  0.34858669  0.89904995     0.13400
C1414       C  0.22516589  0.30471259  0.89501989     0.00300
C1415       C  0.20040828  0.26632178  0.90389867     0.15300
C1416       C  0.18380854  0.27204287  0.91671349     0.24700
C1417       C  0.19294191  0.31642740  0.92096276    -0.41600
C1418       C  0.21669842  0.35447768  0.91197519     0.31800
C1419       C  0.24502336  0.29964797  0.88177010     0.00400
F1420       F  0.19317717  0.22355116  0.90029578    -0.13900
F1421       F  0.22321705  0.39705216  0.91550823    -0.14400
C1422       C  0.29280190  0.32862425  0.87902989     0.15300
C1423       C  0.31187090  0.32458540  0.86653940     0.24700
C1424       C  0.28390100  0.29053941  0.85674526    -0.41500
C1425       C  0.23629230  0.26104786  0.85949363     0.31700
C1426       C  0.21679258  0.26607619  0.87183985     0.13400
F1427       F  0.32134845  0.36001496  0.88863868    -0.13900
F1428       F  0.20860915  0.22810593  0.85011656    -0.14400
F1429       F  0.35823551  0.35270452  0.86424499    -0.16700
F1430       F  0.17028806  0.23869025  0.87401295    -0.15300
F1431       F  0.25325802  0.38559505  0.89032719    -0.15300
F1432       F  0.15965238  0.23450989  0.92507162    -0.16700
C1433       C  0.85954509  0.22670273  0.93843567     0.13400
C1434       C  0.84130230  0.17878790  0.93648388     0.00300
C1435       C  0.86003958  0.15540223  0.94386042     0.15300
C1436       C  0.89880263  0.18025343  0.95238411     0.24700
C1437       C  0.91878435  0.22865539  0.95377801    -0.41600
C1438       C  0.89797848  0.25156227  0.94715584     0.31800
C1439       C  0.80545142  0.15297658  0.92594438     0.00400
F1440       F  0.84232050  0.10884326  0.94215672    -0.13900
F1441       F  0.91716386  0.29849400  0.94822679    -0.14400
C1442       C  0.81850601  0.15534701  0.91193376     0.15300
C1443       C  0.78867696  0.12111960  0.90254225     0.24700
C1444       C  0.74575012  0.08454927  0.90716173    -0.41500
C1445       C  0.73106746  0.08494858  0.92085168     0.31700
C1446       C  0.76080665  0.11904103  0.93019325     0.13400
F1447       F  0.86191079  0.18784399  0.90773216    -0.13900
F1448       F  0.68949975  0.04993059  0.92547231    -0.14400
F1449       F  0.80396891  0.12053030  0.88948581    -0.16700
F1450       F  0.74777674  0.11657593  0.94368693    -0.15300
F1451       F  0.84132123  0.24952289  0.93147919    -0.15300
F1452       F  0.91790944  0.15740974  0.95887385    -0.16700
C1453       C  0.29204697  0.59016156  0.91822215     0.13400
C1454       C  0.33683518  0.59545985  0.91773125     0.00300
C1455       C  0.34399245  0.56055900  0.92343378     0.15300
C1456       C  0.30743011  0.52166860  0.92984499     0.24700
C1457       C  0.26296694  0.51743217  0.93114445    -0.41600
C1458       C  0.25548335  0.55170149  0.92488212     0.31800
C1459       C  0.37668043  0.63815663  0.91184172     0.00400
F1460       F  0.38708183  0.56508983  0.92335361    -0.13900
F1461       F  0.21325185  0.54902281  0.92550556    -0.14400
C1462       C  0.38870545  0.68222587  0.91725156     0.15300
C1463       C  0.42859449  0.72219066  0.91256516     0.24700
C1464       C  0.45719649  0.71893096  0.90229986    -0.41500
C1465       C  0.44407176  0.67489528  0.89652641     0.31700
C1466       C  0.40426542  0.63495883  0.90127444     0.13400
F1467       F  0.36260856  0.68646219  0.92742261    -0.13900
F1468       F  0.46915977  0.67049869  0.88605929    -0.14400
F1469       F  0.43995069  0.76387930  0.91841837    -0.16700
F1470       F  0.39231042  0.59308632  0.89543817    -0.15300
F1471       F  0.28385217  0.62267735  0.91239074    -0.15300
F1472       F  0.31614915  0.48866431  0.93501114    -0.16700
C1473       C  0.99069907  0.51427401  0.00163030     0.13400
C1474       C  0.95286613  0.48636921  0.01052688     0.00300
C1475       C  0.95215478  0.44750559  0.01676046     0.15300
C1476       C  0.98765252  0.43688928  0.01422268     0.24700
C1477       C  0.02496855  0.46401861  0.00514285    -0.41600
C1478       C  0.02601639  0.50297127  0.99887290     0.31800
C1479       C  0.91511007  0.49808809  0.01392723     0.00400
F1480       F  0.91568556  0.41819784  0.02489385    -0.13900
F1481       F  0.05970701  0.52854064  0.98946201    -0.14400
C1482       C  0.88880860  0.50528285  0.00360594     0.15300
C1483       C  0.85320794  0.51547142  0.00725595     0.24700
C1484       C  0.84303167  0.51874857  0.02132286    -0.41500
C1485       C  0.86886684  0.51037184  0.03151349     0.31700
C1486       C  0.90425226  0.50084287  0.02789890     0.13400
F1487       F  0.89721757  0.50204367  0.98996601    -0.13900
F1488       F  0.86025949  0.51176906  0.04526464    -0.14400
F1489       F  0.82984119  0.52347582  0.99704836    -0.16700
F1490       F  0.92893673  0.49544330  0.03826823    -0.15300
F1491       F  0.99335572  0.55235743  0.99549450    -0.15300
F1492       F  0.98423374  0.39811667  0.02014027    -0.16700
C1493       C  0.50710193  0.54761636  0.99752082     0.13400
C1494       C  0.46555554  0.50925179  0.00258733     0.00300
C1495       C  0.46952273  0.47518206  0.01028676     0.15300
C1496       C  0.51353297  0.48090300  0.01364605     0.24700
C1497       C  0.55488221  0.52018754  0.00911761    -0.41600
C1498       C  0.55102952  0.55301745  0.00079780     0.31800
C1499       C  0.41834779  0.50426422  0.99965784     0.00400
F1500       F  0.43064220  0.43640379  0.01473741    -0.13900
F1501       F  0.59012066  0.59252967  0.99680933    -0.14400
C1502       C  0.40541403  0.50728052  0.98597088     0.15300
C1503       C  0.36085595  0.50004617  0.98292421     0.24700
C1504       C  0.32628220  0.48723334  0.99334335    -0.41500
C1505       C  0.33968834  0.48627000  0.00719294     0.31700
C1506       C  0.38530936  0.49519004  0.01031845     0.13400
F1507       F  0.43502373  0.51442424  0.97528123    -0.13900
F1508       F  0.30808842  0.47410812  0.01760947    -0.14400
F1509       F  0.35077029  0.50335090  0.96943905    -0.16700
F1510       F  0.39692127  0.49410200  0.02378126    -0.15300
F1511       F  0.50550567  0.58148367  0.99003934    -0.15300
F1512       F  0.51586550  0.44927022  0.02204188    -0.16700
loop_ 
_geom_bond_atom_site_label_1 
_geom_bond_atom_site_label_2 
_geom_bond_distance 
_geom_bond_site_symmetry_2 
_ccdc_geom_bond_type 
Zr1           O2   2.446   1_455  S
Zr1           O3   2.440   1_556  S
Zr1           O4   2.430   1_455  S
Zr1           O7   2.396       .  S
Zr1           O9   2.376       .  S
Zr1          O10   2.394       .  S
Zr1          O11   2.415       .  S
Zr1          O12   2.404       .  S
O2           H58   0.991       .  S
O2           H66   0.991       .  S
O3           C23   1.284       .  A
O4           C25   1.279       .  A
O5          Zr15   2.536   1_554  S
O5           C24   1.304   1_554  A
O6          Zr14   2.417   1_655  S
O6           C25   1.279       .  A
O7           C24   1.276       .  A
O8          Zr16   2.422   1_554  S
O8           C23   1.281       .  A
O9          Zr14   2.397       .  S
O9          Zr16   2.381       .  S
O10         Zr15   2.407       .  S
O10         Zr16   2.391       .  S
O10          H45   0.966   1_556  S
O11         Zr14   2.403       .  S
O11         Zr31   2.406       .  S
O11          H48   0.966       .  S
O12         Zr15   2.396       .  S
O12         Zr31   2.386       .  S
Zr13         O38   2.444       .  S
Zr13         O32   2.423       .  S
Zr13         O40   2.386       .  S
Zr13         O28   2.430       .  S
Zr13         O19   2.400       .  S
Zr13         O20   2.398       .  S
Zr13         O21   2.363       .  S
Zr13         O22   2.390       .  S
Zr14         O33   2.443       .  S
Zr14         O26   2.436       .  S
Zr14         O27   2.425       .  S
Zr14         O20   2.389       .  S
Zr14         O21   2.387       .  S
Zr15         O17   2.434       .  S
Zr15         O39   2.438   1_556  S
Zr15         O41   2.537       .  S
Zr15         O19   2.404       .  S
Zr15         O22   2.397       .  S
Zr16         O42   2.434   1_556  S
Zr16         O43   2.435       .  S
Zr16         O18   2.439       .  S
Zr16         O19   2.390       .  S
Zr16         O20   2.411       .  S
O17          H54   0.990   1_556  S
O18          H49   0.990   1_556  S
O18          H63   0.990       .  S
O20          H46   0.965       .  S
O21         Zr31   2.368       .  S
O22         Zr31   2.380       .  S
O22          H47   0.966       .  S
C23        C1397   1.491   1_455  S
C24        C1477   1.503   1_556  S
C25        C1437   1.465       .  S
O26          H62   0.990       .  S
O27          C29   1.282       .  A
O28          C29   1.284       .  A
C29        C1417   1.470       .  S
O30         Zr31   2.434       .  S
O30          H59   0.990       .  S
Zr31         O34   2.435       .  S
Zr31         O35   2.438       .  S
Zr31         O36   2.438       .  S
O32          C37   1.283       .  A
O33          H50   0.990       .  S
O33          H65   0.990       .  S
O34          H51   0.990       .  S
O35          H55   0.990       .  S
O35          H64   0.990       .  S
O36          C37   1.284       .  A
C37        C1457   1.492       .  S
O38          H57   0.990       .  S
O38          H61   0.990       .  S
O39          H53   0.990       .  S
O39          H60   0.990       .  S
O40          C44   1.277       .  A
O41          C44   1.305       .  A
O42          H52   0.990       .  S
O43          H56   0.990       .  S
C44        C1504   1.512       .  S
Zr67         O68   2.444   1_565  S
Zr67         O69   2.449   1_565  S
Zr67         O70   2.438   1_565  S
Zr67         O73   2.373       .  S
Zr67         O75   2.370       .  S
Zr67         O76   2.393       .  S
Zr67         O77   2.408       .  S
Zr67         O78   2.409       .  S
O68         H124   0.991       .  S
O68         H132   0.990       .  S
O69          C89   1.287       .  A
O70          C91   1.281       .  A
O71         Zr81   2.533       .  S
O71          C90   1.304       .  A
O72         Zr80   2.400   1_545  S
O72          C91   1.276       .  A
O73          C90   1.273       .  A
O74         Zr82   2.431       .  S
O74          C89   1.284   1_565  A
O75         Zr80   2.388       .  S
O75         Zr82   2.376       .  S
O76         Zr81   2.396       .  S
O76         Zr82   2.386       .  S
O76         H111   0.966       .  S
O77         Zr80   2.400       .  S
O77         Zr97   2.410       .  S
O77         H114   0.966       .  S
O78         Zr81   2.397       .  S
O78         Zr97   2.389       .  S
Zr79        O104   2.444       .  S
Zr79         O98   2.429       .  S
Zr79        O106   2.399       .  S
Zr79         O94   2.453       .  S
Zr79         O85   2.411       .  S
Zr79         O86   2.399       .  S
Zr79         O87   2.364       .  S
Zr79         O88   2.393       .  S
Zr80         O99   2.440       .  S
Zr80         O92   2.435       .  S
Zr80         O93   2.411       .  S
Zr80         O86   2.381       .  S
Zr80         O87   2.384       .  S
Zr81         O83   2.435       .  S
Zr81        O105   2.435       .  S
Zr81        O107   2.523       .  S
Zr81         O85   2.404       .  S
Zr81         O88   2.391       .  S
Zr82        O108   2.435       .  S
Zr82        O109   2.436       .  S
Zr82         O84   2.438       .  S
Zr82         O85   2.396       .  S
Zr82         O86   2.411       .  S
O83         H120   0.990       .  S
O84         H115   0.990       .  S
O84         H129   0.990       .  S
O86         H112   0.966       .  S
O87         Zr97   2.367       .  S
O88         Zr97   2.379       .  S
O88         H113   0.965       .  S
C89        C1324   1.499       .  S
C90        C1337   1.494       .  S
C91        C1444   1.463       .  S
O92         H128   0.990       .  S
O93          C95   1.280       .  A
O94          C95   1.287       .  A
C95        C1384   1.483       .  S
O96         Zr97   2.439       .  S
O96         H125   0.990       .  S
Zr97        O100   2.436       .  S
Zr97        O101   2.439       .  S
Zr97        O102   2.434       .  S
O98         C103   1.284       .  A
O99         H116   0.990       .  S
O99         H131   0.990       .  S
O100        H117   0.990       .  S
O101        H121   0.990       .  S
O101        H130   0.990       .  S
O102        C103   1.285       .  A
C103       C1464   1.484       .  S
O104        H123   0.990       .  S
O104        H127   0.990       .  S
O105        H119   0.990       .  S
O105        H126   0.990       .  S
O106        C110   1.279       .  A
O107        C110   1.303       .  A
O108        H118   0.990       .  S
O109        H122   0.990       .  S
C110       C1364   1.495       .  S
Zr133       O134   2.445       .  S
Zr133       O135   2.448       .  S
Zr133       O136   2.450       .  S
Zr133       O139   2.418       .  S
Zr133       O141   2.383       .  S
Zr133       O142   2.398       .  S
Zr133       O143   2.419       .  S
Zr133       O144   2.401       .  S
O134        H190   0.990       .  S
O134        H198   0.991       .  S
O135        C155   1.285       .  A
O136        C157   1.283       .  A
O137       Zr147   2.520       .  S
O137        C156   1.300       .  A
O138       Zr146   2.417       .  S
O138        C157   1.278       .  A
O139        C156   1.281       .  A
O140       Zr148   2.423       .  S
O140        C155   1.282       .  A
O141       Zr146   2.399       .  S
O141       Zr148   2.382       .  S
O142       Zr147   2.403       .  S
O142       Zr148   2.391       .  S
O142        H177   0.965       .  S
O143       Zr146   2.410       .  S
O143       Zr163   2.405       .  S
O143        H180   0.965       .  S
O144       Zr147   2.401       .  S
O144       Zr163   2.380       .  S
Zr145       O170   2.442       .  S
Zr145       O164   2.418       .  S
Zr145       O172   2.391       .  S
Zr145       O160   2.426       .  S
Zr145       O151   2.402       .  S
Zr145       O152   2.401       .  S
Zr145       O153   2.362       .  S
Zr145       O154   2.390       .  S
Zr146       O165   2.444       .  S
Zr146       O158   2.437       .  S
Zr146       O159   2.442       .  S
Zr146       O152   2.388       .  S
Zr146       O153   2.383       .  S
Zr147       O149   2.436       .  S
Zr147       O171   2.436       .  S
Zr147       O173   2.536       .  S
Zr147       O151   2.395       .  S
Zr147       O154   2.394       .  S
Zr148       O174   2.435       .  S
Zr148       O175   2.438       .  S
Zr148       O150   2.437       .  S
Zr148       O151   2.395       .  S
Zr148       O152   2.410       .  S
O149        H186   0.990       .  S
O150        H181   0.990       .  S
O150        H195   0.990       .  S
O152        H178   0.964       .  S
O153       Zr163   2.360       .  S
O154       Zr163   2.388       .  S
O154        H179   0.965       .  S
C155       C1204   1.488       .  S
C156       C1284   1.500       .  S
C157       C1244   1.468       .  S
O158        H194   0.990       .  S
O159        C161   1.286       .  A
O160        C161   1.283       .  A
C161       C1217   1.489       .  S
O162       Zr163   2.435       .  S
O162        H191   0.990       .  S
Zr163       O166   2.436       .  S
Zr163       O167   2.436       .  S
Zr163       O168   2.435       .  S
O164        C169   1.282       .  A
O165        H182   0.990       .  S
O165        H197   0.991       .  S
O166        H183   0.990       .  S
O167        H187   0.990       .  S
O167        H196   0.990       .  S
O168        C169   1.284       .  A
C169       C1264   1.489       .  S
O170        H189   0.990       .  S
O170        H193   0.990       .  S
O171        H185   0.990       .  S
O171        H192   0.990       .  S
O172        C176   1.278       .  A
O173        C176   1.304       .  A
O174        H184   0.990       .  S
O175        H188   0.990       .  S
C176       C1297   1.514       .  S
Zr199       O200   2.443   1_455  S
Zr199       O201   2.462   1_455  S
Zr199       O202   2.458   1_455  S
Zr199       O205   2.388       .  S
Zr199       O207   2.367       .  S
Zr199       O208   2.392       .  S
Zr199       O209   2.415       .  S
Zr199       O210   2.408       .  S
O200        H256   0.990       .  S
O200        H264   0.991       .  S
O201        C221   1.288   1_655  A
O202        C223   1.285       .  A
O203       Zr213   2.523       .  S
O203        C222   1.302       .  A
O204       Zr212   2.391   1_655  S
O204        C223   1.276       .  A
O205        C222   1.274       .  A
O206       Zr214   2.431       .  S
O206        C221   1.283       .  A
O207       Zr212   2.397       .  S
O207       Zr214   2.378       .  S
O208       Zr213   2.402       .  S
O208       Zr214   2.391       .  S
O208        H243   0.961       .  S
O209       Zr212   2.396       .  S
O209       Zr229   2.416       .  S
O209        H246   0.965       .  S
O210       Zr213   2.387       .  S
O210       Zr229   2.389       .  S
Zr211       O236   2.441       .  S
Zr211       O230   2.424       .  S
Zr211       O238   2.396       .  S
Zr211       O226   2.461       .  S
Zr211       O217   2.403       .  S
Zr211       O218   2.395       .  S
Zr211       O219   2.362       .  S
Zr211       O220   2.392       .  S
Zr212       O231   2.439       .  S
Zr212       O224   2.434       .  S
Zr212       O225   2.400       .  S
Zr212       O218   2.386       .  S
Zr212       O219   2.385       .  S
Zr213       O215   2.436       .  S
Zr213       O237   2.435       .  S
Zr213       O239   2.526       .  S
Zr213       O217   2.400       .  S
Zr213       O220   2.386       .  S
Zr214       O240   2.432       .  S
Zr214       O241   2.435       .  S
Zr214       O216   2.439       .  S
Zr214       O217   2.390       .  S
Zr214       O218   2.408       .  S
O215        H252   0.990       .  S
O216        H247   0.990       .  S
O216        H261   0.990       .  S
O218        H244   0.961       .  S
O219       Zr229   2.369       .  S
O220       Zr229   2.380       .  S
O220        H245   0.969       .  S
C221       C1117   1.503   1_455  S
C222       C1137   1.488       .  S
C223       C1237   1.467       .  S
O224        H260   0.990       .  S
O225        C227   1.278       .  A
O226        C227   1.288       .  A
C227       C1177   1.496       .  S
O228       Zr229   2.438       .  S
O228        H257   0.990       .  S
Zr229       O232   2.437       .  S
Zr229       O233   2.438       .  S
Zr229       O234   2.442       .  S
O230        C235   1.283       .  A
O231        H248   0.990       .  S
O231        H263   0.990       .  S
O232        H249   0.990       .  S
O233        H253   0.990       .  S
O233        H262   0.990       .  S
O234        C235   1.285       .  A
C235       C1257   1.489       .  S
O236        H255   0.990       .  S
O236        H259   0.990       .  S
O237        H251   0.990       .  S
O237        H258   0.990       .  S
O238        C242   1.279       .  A
O239        C242   1.303       .  A
O240        H250   0.990       .  S
O241        H254   0.990       .  S
C242       C1157   1.502       .  S
Zr265       O266   2.445   1_545  S
Zr265       O267   2.454   1_545  S
Zr265       O268   2.454   1_545  S
Zr265       O271   2.392       .  S
Zr265       O273   2.377       .  S
Zr265       O274   2.391       .  S
Zr265       O275   2.413       .  S
Zr265       O276   2.411       .  S
O266        H322   0.990       .  S
O266        H330   0.991       .  S
O267        C287   1.286       .  A
O268        C289   1.283       .  A
O269       Zr279   2.527       .  S
O269        C288   1.303       .  A
O270       Zr278   2.401   1_565  S
O270        C289   1.277       .  A
O271        C288   1.275       .  A
O272       Zr280   2.418       .  S
O272        C287   1.281   1_545  A
O273       Zr278   2.398       .  S
O273       Zr280   2.384       .  S
O274       Zr279   2.402       .  S
O274       Zr280   2.389       .  S
O274        H309   0.967       .  S
O275       Zr278   2.401       .  S
O275       Zr295   2.405       .  S
O275        H312   0.965       .  S
O276       Zr279   2.395       .  S
O276       Zr295   2.389       .  S
Zr277       O302   2.440       .  S
Zr277       O296   2.418       .  S
Zr277       O304   2.394       .  S
Zr277       O292   2.450       .  S
Zr277       O283   2.398       .  S
Zr277       O284   2.397       .  S
Zr277       O285   2.365       .  S
Zr277       O286   2.395       .  S
Zr278       O297   2.440       .  S
Zr278       O290   2.435       .  S
Zr278       O291   2.420       .  S
Zr278       O284   2.387       .  S
Zr278       O285   2.387       .  S
Zr279       O281   2.436       .  S
Zr279       O303   2.434       .  S
Zr279       O305   2.527       .  S
Zr279       O283   2.397       .  S
Zr279       O286   2.395       .  S
Zr280       O306   2.436       .  S
Zr280       O307   2.435       .  S
Zr280       O282   2.435       .  S
Zr280       O283   2.380       .  S
Zr280       O284   2.407       .  S
O281        H318   0.990       .  S
O282        H313   0.990       .  S
O282        H327   0.990       .  S
O284        H310   0.967       .  S
O285       Zr295   2.372       .  S
O286       Zr295   2.380       .  S
O286        H311   0.965       .  S
C287       C1224   1.492       .  S
C288       C1164   1.497       .  S
C289       C1084   1.468       .  S
O290        H326   0.990       .  S
O291        C293   1.281       .  A
O292        C293   1.287       .  A
C293       C1404   1.497       .  S
O294       Zr295   2.439       .  S
O294        H323   0.990       .  S
Zr295       O298   2.436       .  S
Zr295       O299   2.439       .  S
Zr295       O300   2.432       .  S
O296        C301   1.281       .  A
O297        H314   0.990       .  S
O297        H329   0.990       .  S
O298        H315   0.990       .  S
O299        H319   0.990       .  S
O299        H328   0.989       .  S
O300        C301   1.284       .  A
C301       C1104   1.471       .  S
O302        H321   0.990       .  S
O302        H325   0.990       .  S
O303        H317   0.990       .  S
O303        H324   0.990       .  S
O304        C308   1.279       .  A
O305        C308   1.304       .  A
O306        H316   0.990       .  S
O307        H320   0.990       .  S
C308       C1144   1.500       .  S
Zr331       O332   2.443       .  S
Zr331       O333   2.449       .  S
Zr331       O334   2.454       .  S
Zr331       O337   2.400       .  S
Zr331       O339   2.374       .  S
Zr331       O340   2.403       .  S
Zr331       O341   2.408       .  S
Zr331       O342   2.409       .  S
O332        H388   0.990       .  S
O332        H396   0.990       .  S
O333        C353   1.286       .  A
O334        C355   1.284       .  A
O335       Zr345   2.522       .  S
O335        C354   1.299       .  A
O336       Zr344   2.406       .  S
O336        C355   1.279       .  A
O337        C354   1.274       .  A
O338       Zr346   2.438       .  S
O338        C353   1.285       .  A
O339       Zr344   2.398       .  S
O339       Zr346   2.378       .  S
O340       Zr345   2.392       .  S
O340       Zr346   2.381       .  S
O340        H375   0.964       .  S
O341       Zr344   2.400       .  S
O341       Zr361   2.410       .  S
O341        H378   0.966       .  S
O342       Zr345   2.402       .  S
O342       Zr361   2.383       .  S
Zr343       O368   2.440       .  S
Zr343       O362   2.425       .  S
Zr343       O370   2.390       .  S
Zr343       O358   2.448       .  S
Zr343       O349   2.411       .  S
Zr343       O350   2.397       .  S
Zr343       O351   2.354       .  S
Zr343       O352   2.395       .  S
Zr344       O363   2.439       .  S
Zr344       O356   2.436       .  S
Zr344       O357   2.436       .  S
Zr344       O350   2.388       .  S
Zr344       O351   2.371       .  S
Zr345       O347   2.435       .  S
Zr345       O369   2.435   1_554  S
Zr345       O371   2.532       .  S
Zr345       O349   2.402       .  S
Zr345       O352   2.390       .  S
Zr346       O372   2.435       .  S
Zr346       O373   2.434       .  S
Zr346       O348   2.436       .  S
Zr346       O349   2.395       .  S
Zr346       O350   2.414       .  S
O347        H384   0.990       .  S
O348        H379   0.990       .  S
O348        H393   0.990       .  S
O350        H376   0.965       .  S
O351       Zr361   2.355       .  S
O352       Zr361   2.384       .  S
O352        H377   0.966       .  S
C353       C1377   1.497   1_554  S
C354       C1497   1.490       .  S
C355       C1077   1.468       .  S
O356        H392   0.990       .  S
O357        C359   1.286       .  A
O358        C359   1.287       .  A
C359       C1124   1.501       .  S
O360       Zr361   2.435       .  S
O360        H389   0.990       .  S
Zr361       O364   2.435       .  S
Zr361       O365   2.435       .  S
Zr361       O366   2.420       .  S
O362        C367   1.283       .  A
O363        H380   0.990       .  S
O363        H395   0.990       .  S
O364        H381   0.990       .  S
O365        H385   0.990       .  S
O365        H394   0.990       .  S
O366        C367   1.282       .  A
C367       C1097   1.480       .  S
O368        H387   0.990       .  S
O368        H391   0.990       .  S
O369        H383   0.990       .  S
O369        H390   0.990       .  S
O370        C374   1.278       .  A
O371        C374   1.304       .  A
O372        H382   0.990   1_554  S
O373        H386   0.990       .  S
C374       C1484   1.514       .  S
Zr397       O398   2.444       .  S
Zr397       O399   2.430       .  S
Zr397       O400   2.451       .  S
Zr397       O403   2.399       .  S
Zr397       O405   2.372       .  S
Zr397       O406   2.395       .  S
Zr397       O407   2.408       .  S
Zr397       O408   2.399       .  S
O398        H454   0.990       .  S
O398        H462   0.991       .  S
O399        C419   1.282       .  A
O400        C421   1.284       .  A
O401       Zr411   2.513       .  S
O401        C420   1.300       .  A
O402       Zr410   2.410       .  S
O402        C421   1.278       .  A
O403        C420   1.277       .  A
O404       Zr412   2.420       .  S
O404        C419   1.280       .  A
O405       Zr410   2.397       .  S
O405       Zr412   2.381       .  S
O406       Zr411   2.403       .  S
O406       Zr412   2.390       .  S
O406        H441   0.965       .  S
O407       Zr410   2.401       .  S
O407       Zr427   2.413       .  S
O407        H444   0.968       .  S
O408       Zr411   2.395       .  S
O408       Zr427   2.378       .  S
Zr409       O434   2.442       .  S
Zr409       O428   2.416       .  S
Zr409       O436   2.396       .  S
Zr409       O424   2.439       .  S
Zr409       O415   2.402       .  S
Zr409       O416   2.394       .  S
Zr409       O417   2.361       .  S
Zr409       O418   2.389       .  S
Zr410       O429   2.440       .  S
Zr410       O422   2.435       .  S
Zr410       O423   2.430       .  S
Zr410       O416   2.388       .  S
Zr410       O417   2.379       .  S
Zr411       O413   2.436       .  S
Zr411       O435   2.434       .  S
Zr411       O437   2.527       .  S
Zr411       O415   2.399       .  S
Zr411       O418   2.373       .  S
Zr412       O438   2.438       .  S
Zr412       O439   2.434       .  S
Zr412       O414   2.436       .  S
Zr412       O415   2.391       .  S
Zr412       O416   2.408       .  S
O413        H450   0.990       .  S
O414        H445   0.990       .  S
O414        H459   0.990       .  S
O416        H442   0.962       .  S
O417       Zr427   2.362       .  S
O418       Zr427   2.385       .  S
O418        H443   0.964       .  S
C419       C1424   1.469       .  S
C420       C1357   1.488       .  S
C421       C1044   1.471       .  S
O422        H458   0.990       .  S
O423        C425   1.284       .  A
O424        C425   1.286       .  A
C425       C1017   1.496       .  S
O426       Zr427   2.440       .  S
O426        H455   0.990       .  S
Zr427       O430   2.436       .  S
Zr427       O431   2.437       .  S
Zr427       O432   2.437       .  S
O428        C433   1.282       .  A
O429        H446   0.990       .  S
O429        H461   0.990       .  S
O430        H447   0.990       .  S
O431        H451   0.990       .  S
O431        H460   0.990       .  S
O432        C433   1.286       .  A
C433       C1064   1.467       .  S
O434        H453   0.990       .  S
O434        H457   0.990       .  S
O435        H449   0.990       .  S
O435        H456   0.990       .  S
O436        C440   1.280       .  A
O437        C440   1.303       .  A
O438        H448   0.990       .  S
O439        H452   0.990       .  S
C440       C1344   1.510       .  S
Zr463       O464   2.446       .  S
Zr463       O465   2.447       .  S
Zr463       O466   2.457       .  S
Zr463       O469   2.401       .  S
Zr463       O471   2.380   1_455  S
Zr463       O472   2.399   1_455  S
Zr463       O473   2.414   1_455  S
Zr463       O474   2.410   1_455  S
O464        H520   0.990       .  S
O464        H528   0.991       .  S
O465        C485   1.285       .  A
O466        C487   1.283       .  A
O467       Zr477   2.535       .  S
O467        C486   1.304       .  A
O468       Zr476   2.409   1_455  S
O468        C487   1.276       .  A
O469        C486   1.276   1_455  A
O470       Zr478   2.411       .  S
O470        C485   1.280   1_655  A
O471       Zr476   2.397       .  S
O471       Zr478   2.385       .  S
O472       Zr477   2.403       .  S
O472       Zr478   2.391       .  S
O472        H507   0.963       .  S
O473       Zr476   2.405       .  S
O473       Zr493   2.399       .  S
O473        H510   0.963   1_655  S
O474       Zr477   2.399       .  S
O474       Zr493   2.385       .  S
Zr475       O500   2.441       .  S
Zr475       O494   2.429       .  S
Zr475       O502   2.391       .  S
Zr475       O490   2.444       .  S
Zr475       O481   2.405       .  S
Zr475       O482   2.399       .  S
Zr475       O483   2.359       .  S
Zr475       O484   2.393       .  S
Zr476       O495   2.443       .  S
Zr476       O488   2.437       .  S
Zr476       O489   2.433       .  S
Zr476       O482   2.388       .  S
Zr476       O483   2.381       .  S
Zr477       O479   2.434       .  S
Zr477       O501   2.437       .  S
Zr477       O503   2.542       .  S
Zr477       O481   2.401       .  S
Zr477       O484   2.387       .  S
Zr478       O504   2.436       .  S
Zr478       O505   2.436       .  S
Zr478       O480   2.438       .  S
Zr478       O481   2.390       .  S
Zr478       O482   2.408       .  S
O479        H516   0.990       .  S
O480        H511   0.990       .  S
O480        H525   0.990       .  S
O482        H508   0.973       .  S
O483       Zr493   2.362       .  S
O484       Zr493   2.380       .  S
O484        H509   0.967       .  S
C485        C957   1.485       .  S
C486        C977   1.501   1_655  S
C487       C1037   1.466       .  S
O488        H524   0.990       .  S
O489        C491   1.284       .  A
O490        C491   1.287       .  A
C491       C1317   1.501       .  S
O492       Zr493   2.438       .  S
O492        H521   0.990       .  S
Zr493       O496   2.436       .  S
Zr493       O497   2.437       .  S
Zr493       O498   2.428       .  S
O494        C499   1.284       .  A
O495        H512   0.990   1_655  S
O495        H527   0.991   1_655  S
O496        H513   0.990       .  S
O497        H517   0.990       .  S
O497        H526   0.990       .  S
O498        C499   1.284       .  A
C499       C1057   1.475       .  S
O500        H519   0.990       .  S
O500        H523   0.990       .  S
O501        H515   0.990       .  S
O501        H522   0.990       .  S
O502        C506   1.279       .  A
O503        C506   1.307       .  A
O504        H514   0.990       .  S
O505        H518   0.990       .  S
C506       C1004   1.513       .  S
Zr529       O530   2.444       .  S
Zr529       O531   2.439       .  S
Zr529       O532   2.446       .  S
Zr529       O535   2.385       .  S
Zr529       O537   2.368   1_455  S
Zr529       O538   2.393   1_455  S
Zr529       O539   2.400   1_455  S
Zr529       O540   2.406   1_455  S
O530        H586   0.990       .  S
O530        H594   0.991       .  S
O531        C551   1.284       .  A
O532        C553   1.283       .  A
O533       Zr543   2.524       .  S
O533        C552   1.302       .  A
O534       Zr542   2.404   1_455  S
O534        C553   1.277       .  A
O535        C552   1.276   1_455  A
O536       Zr544   2.429       .  S
O536        C551   1.282   1_655  A
O537       Zr542   2.400       .  S
O537       Zr544   2.380       .  S
O538       Zr543   2.400       .  S
O538       Zr544   2.384       .  S
O538        H573   0.966       .  S
O539       Zr542   2.404       .  S
O539       Zr559   2.413       .  S
O539        H576   0.966   1_655  S
O540       Zr543   2.405       .  S
O540       Zr559   2.388       .  S
Zr541       O566   2.442       .  S
Zr541       O560   2.413       .  S
Zr541       O568   2.386       .  S
Zr541       O556   2.449       .  S
Zr541       O547   2.402       .  S
Zr541       O548   2.393       .  S
Zr541       O549   2.360       .  S
Zr541       O550   2.392       .  S
Zr542       O561   2.441       .  S
Zr542       O554   2.438       .  S
Zr542       O555   2.429       .  S
Zr542       O548   2.390       .  S
Zr542       O549   2.384       .  S
Zr543       O545   2.434       .  S
Zr543       O567   2.436       .  S
Zr543       O569   2.527       .  S
Zr543       O547   2.402       .  S
Zr543       O550   2.393       .  S
Zr544       O570   2.437       .  S
Zr544       O571   2.434       .  S
Zr544       O546   2.436       .  S
Zr544       O547   2.389       .  S
Zr544       O548   2.415       .  S
O545        H582   0.990       .  S
O546        H577   0.990       .  S
O546        H591   0.990       .  S
O548        H574   0.966       .  S
O549       Zr559   2.371       .  S
O550       Zr559   2.379       .  S
O550        H575   0.965       .  S
C551        C857   1.497       .  S
C552        C924   1.495   1_655  S
C553        C877   1.466       .  S
O554        H590   0.990       .  S
O555        C557   1.284       .  A
O556        C557   1.288       .  A
C557       C1197   1.492       .  S
O558       Zr559   2.435       .  S
O558        H587   0.990       .  S
Zr559       O562   2.436       .  S
Zr559       O563   2.438       .  S
Zr559       O564   2.442       .  S
O560        C565   1.281       .  A
O561        H578   0.990   1_655  S
O561        H593   0.990   1_655  S
O562        H579   0.990       .  S
O563        H583   0.990       .  S
O563        H592   0.990       .  S
O564        C565   1.286       .  A
C565        C897   1.490       .  S
O566        H585   0.990       .  S
O566        H589   0.990       .  S
O567        H581   0.990       .  S
O567        H588   0.990       .  S
O568        C572   1.278       .  A
O569        C572   1.303       .  A
O570        H580   0.990       .  S
O571        H584   0.990       .  S
C572        C944   1.508       .  S
Zr595       O596   2.443   1_545  S
Zr595       O597   2.448   1_545  S
Zr595       O598   2.446   1_545  S
Zr595       O601   2.384       .  S
Zr595       O603   2.376       .  S
Zr595       O604   2.391       .  S
Zr595       O605   2.410       .  S
Zr595       O606   2.409       .  S
O596        H652   0.991       .  S
O596        H660   0.991       .  S
O597        C617   1.286       .  A
O598        C619   1.282       .  A
O599       Zr609   2.522       .  S
O599        C618   1.301       .  A
O600       Zr608   2.407   1_565  S
O600        C619   1.278       .  A
O601        C618   1.275       .  A
O602       Zr610   2.424       .  S
O602        C617   1.282   1_545  A
O603       Zr608   2.394       .  S
O603       Zr610   2.383       .  S
O604       Zr609   2.395       .  S
O604       Zr610   2.385       .  S
O604        H639   0.965       .  S
O605       Zr608   2.401       .  S
O605       Zr625   2.400       .  S
O605        H642   0.965       .  S
O606       Zr609   2.396       .  S
O606       Zr625   2.390       .  S
Zr607       O632   2.438       .  S
Zr607       O626   2.418       .  S
Zr607       O634   2.406       .  S
Zr607       O622   2.447       .  S
Zr607       O613   2.400       .  S
Zr607       O614   2.399       .  S
Zr607       O615   2.366       .  S
Zr607       O616   2.391       .  S
Zr608       O627   2.444       .  S
Zr608       O620   2.435       .  S
Zr608       O621   2.413       .  S
Zr608       O614   2.384       .  S
Zr608       O615   2.382       .  S
Zr609       O611   2.436       .  S
Zr609       O633   2.438       .  S
Zr609       O635   2.522       .  S
Zr609       O613   2.397       .  S
Zr609       O616   2.389       .  S
Zr610       O636   2.435       .  S
Zr610       O637   2.436       .  S
Zr610       O612   2.436       .  S
Zr610       O613   2.390       .  S
Zr610       O614   2.407       .  S
O611        H648   0.990       .  S
O612        H643   0.990       .  S
O612        H657   0.990       .  S
O614        H640   0.967       .  S
O615       Zr625   2.365       .  S
O616       Zr625   2.380       .  S
O616        H641   0.965       .  S
C617       C1184   1.497       .  S
C618       C1304   1.494   1_545  S
C619        C884   1.465       .  S
O620        H656   0.990       .  S
O621        C623   1.281       .  A
O622        C623   1.286       .  A
C623        C837   1.489       .  S
O624       Zr625   2.439       .  S
O624        H653   0.990       .  S
Zr625       O628   2.437       .  S
Zr625       O629   2.437       .  S
Zr625       O630   2.432       .  S
O626        C631   1.282       .  A
O627        H644   0.990       .  S
O627        H659   0.990       .  S
O628        H645   0.990       .  S
O629        H649   0.990       .  S
O629        H658   0.990       .  S
O630        C631   1.284       .  A
C631        C904   1.487       .  S
O632        H651   0.990       .  S
O632        H655   0.990       .  S
O633        H647   0.990       .  S
O633        H654   0.990       .  S
O634        C638   1.281       .  A
O635        C638   1.303       .  A
O636        H646   0.990       .  S
O637        H650   0.990       .  S
C638       C1277   1.501       .  S
Zr661       O662   2.443   1_565  S
Zr661       O663   2.443   1_565  S
Zr661       O664   2.451   1_565  S
Zr661       O667   2.382       .  S
Zr661       O669   2.366       .  S
Zr661       O670   2.393       .  S
Zr661       O671   2.405       .  S
Zr661       O672   2.413       .  S
O662        H718   0.991       .  S
O662        H726   0.990       .  S
O663        C683   1.284       .  A
O664        C685   1.283       .  A
O665       Zr675   2.533       .  S
O665        C684   1.304       .  A
O666       Zr674   2.392   1_545  S
O666        C685   1.276       .  A
O667        C684   1.274       .  A
O668       Zr676   2.418       .  S
O668        C683   1.281   1_565  A
O669       Zr674   2.391       .  S
O669       Zr676   2.377       .  S
O670       Zr675   2.396       .  S
O670       Zr676   2.393       .  S
O670        H705   0.966       .  S
O671       Zr674   2.395       .  S
O671       Zr691   2.408       .  S
O671        H708   0.966       .  S
O672       Zr675   2.400       .  S
O672       Zr691   2.389       .  S
Zr673       O698   2.439       .  S
Zr673       O692   2.420       .  S
Zr673       O700   2.396       .  S
Zr673       O688   2.458       .  S
Zr673       O679   2.402       .  S
Zr673       O680   2.393       .  S
Zr673       O681   2.360       .  S
Zr673       O682   2.395       .  S
Zr674       O693   2.437       .  S
Zr674       O686   2.434       .  S
Zr674       O687   2.400       .  S
Zr674       O680   2.390       .  S
Zr674       O681   2.378       .  S
Zr675       O677   2.436       .  S
Zr675       O699   2.435       .  S
Zr675       O701   2.525       .  S
Zr675       O679   2.408       .  S
Zr675       O682   2.394       .  S
Zr676       O702   2.436       .  S
Zr676       O703   2.437       .  S
Zr676       O678   2.440       .  S
Zr676       O679   2.394       .  S
Zr676       O680   2.402       .  S
O677        H714   0.990       .  S
O678        H709   0.990       .  S
O678        H723   0.990       .  S
O680        H706   0.968       .  S
O681       Zr691   2.366       .  S
O682       Zr691   2.381       .  S
O682        H707   0.965       .  S
C683       C1024   1.493       .  S
C684        C997   1.496       .  S
C685        C797   1.467       .  S
O686        H722   0.990       .  S
O687        C689   1.279       .  A
O688        C689   1.288       .  A
C689        C864   1.482       .  S
O690       Zr691   2.438       .  S
O690        H719   0.991       .  S
Zr691       O694   2.439       .  S
Zr691       O695   2.441       .  S
Zr691       O696   2.419       .  S
O692        C697   1.282       .  A
O693        H710   0.990       .  S
O693        H725   0.990       .  S
O694        H711   0.990       .  S
O695        H715   0.990       .  S
O695        H724   0.990       .  S
O696        C697   1.281       .  A
C697        C824   1.473       .  S
O698        H717   0.990       .  S
O698        H721   0.990       .  S
O699        H713   0.990       .  S
O699        H720   0.990       .  S
O700        C704   1.279       .  A
O701        C704   1.303       .  A
O702        H712   0.990       .  S
O703        H716   0.990       .  S
C704        C984   1.501       .  S
Zr727       O728   2.445       .  S
Zr727       O729   2.437       .  S
Zr727       O730   2.449       .  S
Zr727       O733   2.387       .  S
Zr727       O735   2.371       .  S
Zr727       O736   2.395       .  S
Zr727       O737   2.405       .  S
Zr727       O738   2.402       .  S
O728        H784   0.990       .  S
O728        H792   0.991       .  S
O729        C749   1.282       .  A
O730        C751   1.283       .  A
O731       Zr741   2.530       .  S
O731        C750   1.303       .  A
O732       Zr740   2.393       .  S
O732        C751   1.276       .  A
O733        C750   1.276       .  A
O734       Zr742   2.432       .  S
O734        C749   1.283       .  A
O735       Zr740   2.401       .  S
O735       Zr742   2.382       .  S
O736       Zr741   2.395       .  S
O736       Zr742   2.386       .  S
O736        H771   0.965       .  S
O737       Zr740   2.399       .  S
O737       Zr757   2.411       .  S
O737        H774   0.966       .  S
O738       Zr741   2.392       .  S
O738       Zr757   2.381       .  S
Zr739       O764   2.443       .  S
Zr739       O758   2.413       .  S
Zr739       O766   2.391       .  S
Zr739       O754   2.454       .  S
Zr739       O745   2.403       .  S
Zr739       O746   2.393       .  S
Zr739       O747   2.358       .  S
Zr739       O748   2.398       .  S
Zr740       O759   2.438       .  S
Zr740       O752   2.436       .  S
Zr740       O753   2.419       .  S
Zr740       O746   2.385       .  S
Zr740       O747   2.380       .  S
Zr741       O743   2.437       .  S
Zr741       O765   2.438       .  S
Zr741       O767   2.522       .  S
Zr741       O745   2.402       .  S
Zr741       O748   2.394       .  S
Zr742       O768   2.435       .  S
Zr742       O769   2.438       .  S
Zr742       O744   2.437       .  S
Zr742       O745   2.389       .  S
Zr742       O746   2.414       .  S
O743        H780   0.990       .  S
O744        H775   0.990       .  S
O744        H789   0.990       .  S
O746        H772   0.965       .  S
O747       Zr757   2.374       .  S
O748       Zr757   2.379       .  S
O748        H773   0.966       .  S
C749        C844   1.494       .  S
C750        C937   1.492       .  S
C751        C804   1.465       .  S
O752        H788   0.990       .  S
O753        C755   1.282       .  A
O754        C755   1.289       .  A
C755        C964   1.492       .  S
O756       Zr757   2.434       .  S
O756        H785   0.990       .  S
Zr757       O760   2.433       .  S
Zr757       O761   2.438       .  S
Zr757       O762   2.436       .  S
O758        C763   1.281       .  A
O759        H776   0.990       .  S
O759        H791   0.990       .  S
O760        H777   0.990       .  S
O761        H781   0.990       .  S
O761        H790   0.990       .  S
O762        C763   1.284       .  A
C763        C817   1.488       .  S
O764        H783   0.990       .  S
O764        H787   0.990       .  S
O765        H779   0.990       .  S
O765        H786   0.990       .  S
O766        C770   1.279       .  A
O767        C770   1.302       .  A
O768        H778   0.990       .  S
O769        H782   0.989       .  S
C770        C917   1.505       .  S
C793        C794   1.400       .  A
C793        C798   1.392       .  A
C793        F811   1.358       .  S
C794        C799   1.469       .  S
C794        C795   1.406       .  A
C795        C796   1.401       .  A
C795        F800   1.358       .  S
C796        C797   1.404       .  A
C796        F812   1.358       .  S
C797        C798   1.406       .  A
C798        F801   1.358       .  S
C799        C802   1.404       .  A
C799        C806   1.402       .  A
C802        C803   1.392       .  A
C802        F807   1.359       .  S
C803        C804   1.403       .  A
C803        F809   1.358       .  S
C804        C805   1.407       .  A
C805        C806   1.400       .  A
C805        F808   1.358       .  S
C806        F810   1.357       .  S
C813        C814   1.403       .  A
C813        C818   1.398       .  A
C813        F831   1.358       .  S
C814        C819   1.474       .  S
C814        C815   1.400       .  A
C815        C816   1.393       .  A
C815        F820   1.358       .  S
C816        C817   1.414       .  A
C816        F832   1.358       .  S
C817        C818   1.413       .  A
C818        F821   1.358       .  S
C819        C822   1.405       .  A
C819        C826   1.404       .  A
C822        C823   1.395       .  A
C822        F827   1.358       .  S
C823        C824   1.407       .  A
C823        F829   1.358       .  S
C824        C825   1.408       .  A
C825        C826   1.395       .  A
C825        F828   1.358       .  S
C826        F830   1.358       .  S
C833        C834   1.408       .  A
C833        C838   1.404       .  A
C833        F851   1.358       .  S
C834        C839   1.486       .  S
C834        C835   1.403       .  A
C835        C836   1.395       .  A
C835        F840   1.358       .  S
C836        C837   1.413       .  A
C836        F852   1.358       .  S
C837        C838   1.410       .  A
C838        F841   1.358       .  S
C839        C842   1.405       .  A
C839        C846   1.404       .  A
C842        C843   1.398       .  A
C842        F847   1.358       .  S
C843        C844   1.412       .  A
C843        F849   1.358       .  S
C844        C845   1.415       .  A
C845        C846   1.401       .  A
C845        F848   1.358       .  S
C846        F850   1.358       .  S
C853        C854   1.402       .  A
C853        C858   1.400       .  A
C853        F871   1.358       .  S
C854        C859   1.481       .  S
C854        C855   1.402       .  A
C855        C856   1.401       .  A
C855        F860   1.358       .  S
C856        C857   1.416       .  A
C856        F872   1.358       .  S
C857        C858   1.415       .  A
C858        F861   1.358       .  S
C859        C862   1.401       .  A
C859        C866   1.407       .  A
C862        C863   1.396       .  A
C862        F867   1.358       .  S
C863        C864   1.411       .  A
C863        F869   1.358       .  S
C864        C865   1.406       .  A
C865        C866   1.404       .  A
C865        F868   1.357       .  S
C866        F870   1.357       .  S
C873        C874   1.406       .  A
C873        C878   1.395       .  A
C873        F891   1.359       .  S
C874        C879   1.472       .  S
C874        C875   1.401       .  A
C875        C876   1.399       .  A
C875        F880   1.357       .  S
C876        C877   1.405       .  A
C876        F892   1.358       .  S
C877        C878   1.404       .  A
C878        F881   1.358       .  S
C879        C882   1.400       .  A
C879        C886   1.408       .  A
C882        C883   1.392       .  A
C882        F887   1.358       .  S
C883        C884   1.405       .  A
C883        F889   1.358       .  S
C884        C885   1.403       .  A
C885        C886   1.401       .  A
C885        F888   1.358       .  S
C886        F890   1.358       .  S
C893        C894   1.404       .  A
C893        C898   1.400       .  A
C893        F911   1.358       .  S
C894        C899   1.475       .  S
C894        C895   1.399       .  A
C895        C896   1.393       .  A
C895        F900   1.359       .  S
C896        C897   1.415       .  A
C896        F912   1.355       .  S
C897        C898   1.412       .  A
C898        F901   1.358       .  S
C899        C902   1.402       .  A
C899        C906   1.402       .  A
C902        C903   1.397       .  A
C902        F907   1.358       .  S
C903        C904   1.413       .  A
C903        F909   1.358       .  S
C904        C905   1.414       .  A
C905        C906   1.394       .  A
C905        F908   1.358       .  S
C906        F910   1.358       .  S
C913        C914   1.416       .  A
C913        C918   1.418       .  A
C913        F931   1.357       .  S
C914        C919   1.511       .  S
C914        C915   1.407       .  A
C915        C916   1.399       .  A
C915        F920   1.358       .  S
C916        C917   1.415       .  A
C916        F932   1.359       .  S
C917        C918   1.411       .  A
C918        F921   1.357       .  S
C919        C922   1.416       .  A
C919        C926   1.408       .  A
C922        C923   1.418       .  A
C922        F927   1.357       .  S
C923        C924   1.409       .  A
C923        F929   1.357   1_455  S
C924        C925   1.410       .  A
C925        C926   1.401       .  A
C925        F928   1.359       .  S
C926        F930   1.358       .  S
C933        C934   1.412       .  A
C933        C938   1.402       .  A
C933        F951   1.358       .  S
C934        C939   1.515       .  S
C934        C935   1.415       .  A
C935        C936   1.417       .  A
C935        F940   1.357       .  S
C936        C937   1.409       .  A
C936        F952   1.357       .  S
C937        C938   1.409       .  A
C938        F941   1.359       .  S
C939        C942   1.405       .  A
C939        C946   1.420       .  A
C942        C943   1.397       .  A
C942        F947   1.358       .  S
C943        C944   1.413       .  A
C943        F949   1.355       .  S
C944        C945   1.411       .  A
C945        C946   1.422       .  A
C945        F948   1.357       .  S
C946        F950   1.357       .  S
C953        C954   1.408       .  A
C953        C958   1.401       .  A
C953        F971   1.358       .  S
C954        C959   1.490       .  S
C954        C955   1.407       .  A
C955        C956   1.400       .  A
C955        F960   1.358       .  S
C956        C957   1.410       .  A
C956        F972   1.358       .  S
C957        C958   1.409       .  A
C958        F961   1.358       .  S
C959        C962   1.405       .  A
C959        C966   1.408       .  A
C962        C963   1.401       .  A
C962        F967   1.358       .  S
C963        C964   1.414       .  A
C963        F969   1.358       .  S
C964        C965   1.408       .  A
C965        C966   1.402       .  A
C965        F968   1.357       .  S
C966        F970   1.358       .  S
C973        C974   1.413       .  A
C973        C978   1.415       .  A
C973        F991   1.358       .  S
C974        C979   1.513       .  S
C974        C975   1.409       .  A
C975        C976   1.411       .  A
C975        F980   1.358       .  S
C976        C977   1.413       .  A
C976        F992   1.358       .  S
C977        C978   1.410       .  A
C978        F981   1.357   1_455  S
C979        C982   1.417       .  A
C979        C986   1.406       .  A
C982        C983   1.418       .  A
C982        F987   1.357       .  S
C983        C984   1.408       .  A
C983        F989   1.357       .  S
C984        C985   1.413       .  A
C985        C986   1.405       .  A
C985        F988   1.358       .  S
C986        F990   1.357       .  S
C993        C994   1.413       .  A
C993        C998   1.408       .  A
C993       F1011   1.358       .  S
C994        C999   1.518       .  S
C994        C995   1.415       .  A
C995        C996   1.416   1_545  A
C995       F1000   1.357       .  S
C996        C997   1.410       .  A
C996       F1012   1.357       .  S
C997        C998   1.410   1_565  A
C998       F1001   1.359       .  S
C999       C1002   1.407       .  A
C999       C1006   1.418       .  A
C1002      C1003   1.405       .  A
C1002      F1007   1.358       .  S
C1003      C1004   1.417       .  A
C1003      F1009   1.359       .  S
C1004      C1005   1.410       .  A
C1005      C1006   1.420       .  A
C1005      F1008   1.357       .  S
C1006      F1010   1.357       .  S
C1013      C1014   1.401       .  A
C1013      C1018   1.400       .  A
C1013      F1031   1.358       .  S
C1014      C1019   1.480       .  S
C1014      C1015   1.403       .  A
C1015      C1016   1.400       .  A
C1015      F1020   1.358       .  S
C1016      C1017   1.414       .  A
C1016      F1032   1.358       .  S
C1017      C1018   1.416       .  A
C1018      F1021   1.358       .  S
C1019      C1022   1.403       .  A
C1019      C1026   1.401       .  A
C1022      C1023   1.401       .  A
C1022      F1027   1.358       .  S
C1023      C1024   1.415       .  A
C1023      F1029   1.358       .  S
C1024      C1025   1.415       .  A
C1025      C1026   1.397       .  A
C1025      F1028   1.358       .  S
C1026      F1030   1.358       .  S
C1033      C1034   1.401       .  A
C1033      C1038   1.399       .  A
C1033      F1051   1.358       .  S
C1034      C1039   1.473       .  S
C1034      C1035   1.406       .  A
C1035      C1036   1.399       .  A
C1035      F1040   1.358       .  S
C1036      C1037   1.402       .  A
C1036      F1052   1.358       .  S
C1037      C1038   1.407       .  A
C1038      F1041   1.358       .  S
C1039      C1042   1.404       .  A
C1039      C1046   1.402       .  A
C1042      C1043   1.396       .  A
C1042      F1047   1.359       .  S
C1043      C1044   1.405       .  A
C1043      F1049   1.358       .  S
C1044      C1045   1.407       .  A
C1045      C1046   1.402       .  A
C1045      F1048   1.357       .  S
C1046      F1050   1.357       .  S
C1053      C1054   1.407       .  A
C1053      C1058   1.400       .  A
C1053      F1071   1.358       .  S
C1054      C1059   1.479       .  S
C1054      C1055   1.404       .  A
C1055      C1056   1.393       .  A
C1055      F1060   1.358       .  S
C1056      C1057   1.408       .  A
C1056      F1072   1.358       .  S
C1057      C1058   1.407       .  A
C1058      F1061   1.357       .  S
C1059      C1062   1.405       .  A
C1059      C1066   1.408       .  A
C1062      C1063   1.394       .  A
C1062      F1067   1.358       .  S
C1063      C1064   1.406       .  A
C1063      F1069   1.359       .  S
C1064      C1065   1.404       .  A
C1065      C1066   1.398       .  A
C1065      F1068   1.358       .  S
C1066      F1070   1.358       .  S
C1073      C1074   1.407       .  A
C1073      C1078   1.394       .  A
C1073      F1091   1.358       .  S
C1074      C1079   1.480       .  S
C1074      C1075   1.406       .  A
C1075      C1076   1.403       .  A
C1075      F1080   1.357       .  S
C1076      C1077   1.405       .  A
C1076      F1092   1.357       .  S
C1077      C1078   1.402       .  A
C1078      F1081   1.359       .  S
C1079      C1082   1.403       .  A
C1079      C1086   1.409       .  A
C1082      C1083   1.395       .  A
C1082      F1087   1.358       .  S
C1083      C1084   1.406       .  A
C1083      F1089   1.358       .  S
C1084      C1085   1.402       .  A
C1085      C1086   1.402       .  A
C1085      F1088   1.358       .  S
C1086      F1090   1.358       .  S
C1093      C1094   1.406       .  A
C1093      C1098   1.399       .  A
C1093      F1111   1.358       .  S
C1094      C1099   1.475       .  S
C1094      C1095   1.401       .  A
C1095      C1096   1.391       .  A
C1095      F1100   1.358       .  S
C1096      C1097   1.411       .  A
C1096      F1112   1.358       .  S
C1097      C1098   1.410       .  A
C1098      F1101   1.358       .  S
C1099      C1102   1.403       .  A
C1099      C1106   1.407       .  A
C1102      C1103   1.395       .  A
C1102      F1107   1.358       .  S
C1103      C1104   1.408       .  A
C1103      F1109   1.358       .  S
C1104      C1105   1.404       .  A
C1105      C1106   1.396       .  A
C1105      F1108   1.358       .  S
C1106      F1110   1.358       .  S
C1113      C1114   1.405       .  A
C1113      C1118   1.405       .  A
C1113      F1131   1.358       .  S
C1114      C1119   1.491       .  S
C1114      C1115   1.404       .  A
C1115      C1116   1.403       .  A
C1115      F1120   1.358       .  S
C1116      C1117   1.416       .  A
C1116      F1132   1.358   1_655  S
C1117      C1118   1.414       .  A
C1118      F1121   1.357       .  S
C1119      C1122   1.403       .  A
C1119      C1126   1.406       .  A
C1122      C1123   1.401       .  A
C1122      F1127   1.358       .  S
C1123      C1124   1.415       .  A
C1123      F1129   1.357       .  S
C1124      C1125   1.415       .  A
C1125      C1126   1.405       .  A
C1125      F1128   1.358       .  S
C1126      F1130   1.358       .  S
C1133      C1134   1.409       .  A
C1133      C1138   1.409       .  A
C1133      F1151   1.357       .  S
C1134      C1139   1.506       .  S
C1134      C1135   1.411       .  A
C1135      C1136   1.410   1_655  A
C1135      F1140   1.358       .  S
C1136      C1137   1.409       .  A
C1136      F1152   1.357       .  S
C1137      C1138   1.410   1_455  A
C1138      F1141   1.358       .  S
C1139      C1142   1.404       .  A
C1139      C1146   1.416       .  A
C1142      C1143   1.403       .  A
C1142      F1147   1.358       .  S
C1143      C1144   1.415       .  A
C1143      F1149   1.358       .  S
C1144      C1145   1.407       .  A
C1145      C1146   1.416       .  A
C1145      F1148   1.357       .  S
C1146      F1150   1.357       .  S
C1153      C1154   1.407       .  A
C1153      C1158   1.405       .  A
C1153      F1171   1.358       .  S
C1154      C1159   1.515       .  S
C1154      C1155   1.418       .  A
C1155      C1156   1.418       .  A
C1155      F1160   1.357       .  S
C1156      C1157   1.408       .  A
C1156      F1172   1.357       .  S
C1157      C1158   1.414       .  A
C1158      F1161   1.359       .  S
C1159      C1162   1.410       .  A
C1159      C1166   1.415       .  A
C1162      C1163   1.410       .  A
C1162      F1167   1.358       .  S
C1163      C1164   1.412   1_565  A
C1163      F1169   1.358       .  S
C1164      C1165   1.408       .  A
C1165      C1166   1.414   1_545  A
C1165      F1168   1.357       .  S
C1166      F1170   1.357       .  S
C1173      C1174   1.407       .  A
C1173      C1178   1.404       .  A
C1173      F1191   1.358       .  S
C1174      C1179   1.485       .  S
C1174      C1175   1.401       .  A
C1175      C1176   1.396       .  A
C1175      F1180   1.358       .  S
C1176      C1177   1.417       .  A
C1176      F1192   1.358       .  S
C1177      C1178   1.412       .  A
C1178      F1181   1.357       .  S
C1179      C1182   1.403       .  A
C1179      C1186   1.404       .  A
C1182      C1183   1.399       .  A
C1182      F1187   1.358       .  S
C1183      C1184   1.415       .  A
C1183      F1189   1.358   1_565  S
C1184      C1185   1.414       .  A
C1185      C1186   1.403       .  A
C1185      F1188   1.358       .  S
C1186      F1190   1.358       .  S
C1193      C1194   1.409       .  A
C1193      C1198   1.404       .  A
C1193      F1211   1.358       .  S
C1194      C1199   1.491       .  S
C1194      C1195   1.405       .  A
C1195      C1196   1.400       .  A
C1195      F1200   1.358       .  S
C1196      C1197   1.413       .  A
C1196      F1212   1.358       .  S
C1197      C1198   1.410       .  A
C1198      F1201   1.358       .  S
C1199      C1202   1.405       .  A
C1199      C1206   1.409       .  A
C1202      C1203   1.400       .  A
C1202      F1207   1.358       .  S
C1203      C1204   1.410       .  A
C1203      F1209   1.358       .  S
C1204      C1205   1.408       .  A
C1205      C1206   1.404       .  A
C1205      F1208   1.358       .  S
C1206      F1210   1.358       .  S
C1213      C1214   1.406       .  A
C1213      C1218   1.401       .  A
C1213      F1231   1.358       .  S
C1214      C1219   1.487       .  S
C1214      C1215   1.405       .  A
C1215      C1216   1.399       .  A
C1215      F1220   1.358       .  S
C1216      C1217   1.411       .  A
C1216      F1232   1.358       .  S
C1217      C1218   1.412       .  A
C1218      F1221   1.358       .  S
C1219      C1222   1.408       .  A
C1219      C1226   1.404       .  A
C1222      C1223   1.404       .  A
C1222      F1227   1.358       .  S
C1223      C1224   1.412       .  A
C1223      F1229   1.358       .  S
C1224      C1225   1.412       .  A
C1225      C1226   1.398       .  A
C1225      F1228   1.358       .  S
C1226      F1230   1.358       .  S
C1233      C1234   1.401       .  A
C1233      C1238   1.394       .  A
C1233      F1251   1.358       .  S
C1234      C1239   1.477       .  S
C1234      C1235   1.409       .  A
C1235      C1236   1.402       .  A
C1235      F1240   1.358       .  S
C1236      C1237   1.402       .  A
C1236      F1252   1.358       .  S
C1237      C1238   1.406       .  A
C1238      F1241   1.358       .  S
C1239      C1242   1.407       .  A
C1239      C1246   1.403       .  A
C1242      C1243   1.397       .  A
C1242      F1247   1.358       .  S
C1243      C1244   1.403       .  A
C1243      F1249   1.358       .  S
C1244      C1245   1.405       .  A
C1245      C1246   1.400       .  A
C1245      F1248   1.358       .  S
C1246      F1250   1.357       .  S
C1253      C1254   1.406       .  A
C1253      C1258   1.402       .  A
C1253      F1271   1.358       .  S
C1254      C1259   1.480       .  S
C1254      C1255   1.401       .  A
C1255      C1256   1.394       .  A
C1255      F1260   1.358       .  S
C1256      C1257   1.414       .  A
C1256      F1272   1.358       .  S
C1257      C1258   1.411       .  A
C1258      F1261   1.358       .  S
C1259      C1262   1.404       .  A
C1259      C1266   1.402       .  A
C1262      C1263   1.400       .  A
C1262      F1267   1.358       .  S
C1263      C1264   1.413       .  A
C1263      F1269   1.358       .  S
C1264      C1265   1.413       .  A
C1265      C1266   1.394       .  A
C1265      F1268   1.357       .  S
C1266      F1270   1.358       .  S
C1273      C1274   1.417       .  A
C1273      C1278   1.416       .  A
C1273      F1291   1.357       .  S
C1274      C1279   1.519       .  S
C1274      C1275   1.411       .  A
C1275      C1276   1.409       .  A
C1275      F1280   1.358       .  S
C1276      C1277   1.410       .  A
C1276      F1292   1.358       .  S
C1277      C1278   1.409       .  A
C1278      F1281   1.357       .  S
C1279      C1282   1.419       .  A
C1279      C1286   1.409       .  A
C1282      C1283   1.417       .  A
C1282      F1287   1.357       .  S
C1283      C1284   1.407       .  A
C1283      F1289   1.357       .  S
C1284      C1285   1.410       .  A
C1285      C1286   1.406       .  A
C1285      F1288   1.358       .  S
C1286      F1290   1.357       .  S
C1293      C1294   1.403       .  A
C1293      C1298   1.401       .  A
C1293      F1311   1.358       .  S
C1294      C1299   1.511       .  S
C1294      C1295   1.416       .  A
C1295      C1296   1.421       .  A
C1295      F1300   1.357       .  S
C1296      C1297   1.412       .  A
C1296      F1312   1.357       .  S
C1297      C1298   1.417       .  A
C1298      F1301   1.356       .  S
C1299      C1302   1.409       .  A
C1299      C1306   1.414       .  A
C1302      C1303   1.404       .  A
C1302      F1307   1.358       .  S
C1303      C1304   1.410       .  A
C1303      F1309   1.359       .  S
C1304      C1305   1.409   1_565  A
C1305      C1306   1.416   1_545  A
C1305      F1308   1.357       .  S
C1306      F1310   1.357       .  S
C1313      C1314   1.404       .  A
C1313      C1318   1.402       .  A
C1313      F1331   1.358       .  S
C1314      C1319   1.488       .  S
C1314      C1315   1.404       .  A
C1315      C1316   1.401       .  A
C1315      F1320   1.358       .  S
C1316      C1317   1.417       .  A
C1316      F1332   1.357       .  S
C1317      C1318   1.414       .  A
C1318      F1321   1.357       .  S
C1319      C1322   1.402       .  A
C1319      C1326   1.406       .  A
C1322      C1323   1.399       .  A
C1322      F1327   1.358       .  S
C1323      C1324   1.415       .  A
C1323      F1329   1.358   1_545  S
C1324      C1325   1.414       .  A
C1325      C1326   1.405       .  A
C1325      F1328   1.358       .  S
C1326      F1330   1.358       .  S
C1333      C1334   1.409       .  A
C1333      C1338   1.407       .  A
C1333      F1351   1.358       .  S
C1334      C1339   1.511       .  S
C1334      C1335   1.413       .  A
C1335      C1336   1.415   1_545  A
C1335      F1340   1.357       .  S
C1336      C1337   1.409       .  A
C1336      F1352   1.357       .  S
C1337      C1338   1.412   1_565  A
C1338      F1341   1.359       .  S
C1339      C1342   1.404       .  A
C1339      C1346   1.416       .  A
C1342      C1343   1.403       .  A
C1342      F1347   1.358       .  S
C1343      C1344   1.417       .  A
C1343      F1349   1.359       .  S
C1344      C1345   1.411       .  A
C1345      C1346   1.419       .  A
C1345      F1348   1.357       .  S
C1346      F1350   1.357       .  S
C1353      C1354   1.411       .  A
C1353      C1358   1.407       .  A
C1353      F1371   1.357       .  S
C1354      C1359   1.510       .  S
C1354      C1355   1.412       .  A
C1355      C1356   1.411       .  A
C1355      F1360   1.357       .  S
C1356      C1357   1.408       .  A
C1356      F1372   1.358       .  S
C1357      C1358   1.408       .  A
C1358      F1361   1.358       .  S
C1359      C1362   1.408       .  A
C1359      C1366   1.414       .  A
C1362      C1363   1.409       .  A
C1362      F1367   1.358       .  S
C1363      C1364   1.411       .  A
C1363      F1369   1.358       .  S
C1364      C1365   1.407       .  A
C1365      C1366   1.413       .  A
C1365      F1368   1.357       .  S
C1366      F1370   1.358       .  S
C1373      C1374   1.403       .  A
C1373      C1378   1.400       .  A
C1373      F1391   1.358       .  S
C1374      C1379   1.488       .  S
C1374      C1375   1.407       .  A
C1375      C1376   1.404       .  A
C1375      F1380   1.358       .  S
C1376      C1377   1.414       .  A
C1376      F1392   1.358   1_556  S
C1377      C1378   1.414       .  A
C1378      F1381   1.357       .  S
C1379      C1382   1.409       .  A
C1379      C1386   1.404       .  A
C1382      C1383   1.404       .  A
C1382      F1387   1.357       .  S
C1383      C1384   1.406       .  A
C1383      F1389   1.358       .  S
C1384      C1385   1.410       .  A
C1385      C1386   1.398       .  A
C1385      F1388   1.358       .  S
C1386      F1390   1.358       .  S
C1393      C1394   1.405       .  A
C1393      C1398   1.401   1_655  A
C1393      F1411   1.358       .  S
C1394      C1399   1.483       .  S
C1394      C1395   1.403       .  A
C1395      C1396   1.399       .  A
C1395      F1400   1.358       .  S
C1396      C1397   1.412       .  A
C1396      F1412   1.358       .  S
C1397      C1398   1.413   1_655  A
C1398      F1401   1.358       .  S
C1399      C1402   1.405       .  A
C1399      C1406   1.401       .  A
C1402      C1403   1.402       .  A
C1402      F1407   1.358       .  S
C1403      C1404   1.413       .  A
C1403      F1409   1.357       .  S
C1404      C1405   1.417       .  A
C1405      C1406   1.398       .  A
C1405      F1408   1.357       .  S
C1406      F1410   1.358       .  S
C1413      C1414   1.406       .  A
C1413      C1418   1.395       .  A
C1413      F1431   1.358       .  S
C1414      C1419   1.481       .  S
C1414      C1415   1.408       .  A
C1415      C1416   1.400       .  A
C1415      F1420   1.358       .  S
C1416      C1417   1.405       .  A
C1416      F1432   1.358       .  S
C1417      C1418   1.404       .  A
C1418      F1421   1.358       .  S
C1419      C1422   1.406       .  A
C1419      C1426   1.408       .  A
C1422      C1423   1.394       .  A
C1422      F1427   1.358       .  S
C1423      C1424   1.404       .  A
C1423      F1429   1.359       .  S
C1424      C1425   1.404       .  A
C1425      C1426   1.401       .  A
C1425      F1428   1.358       .  S
C1426      F1430   1.358       .  S
C1433      C1434   1.400       .  A
C1433      C1438   1.398       .  A
C1433      F1451   1.357       .  S
C1434      C1439   1.467       .  S
C1434      C1435   1.405       .  A
C1435      C1436   1.393       .  A
C1435      F1440   1.358       .  S
C1436      C1437   1.402       .  A
C1436      F1452   1.358       .  S
C1437      C1438   1.408       .  A
C1438      F1441   1.358       .  S
C1439      C1442   1.406       .  A
C1439      C1446   1.399       .  A
C1442      C1443   1.399       .  A
C1442      F1447   1.358       .  S
C1443      C1444   1.403       .  A
C1443      F1449   1.358       .  S
C1444      C1445   1.406       .  A
C1445      C1446   1.393       .  A
C1445      F1448   1.358       .  S
C1446      F1450   1.358       .  S
C1453      C1454   1.405       .  A
C1453      C1458   1.401       .  A
C1453      F1471   1.358       .  S
C1454      C1459   1.484       .  S
C1454      C1455   1.404       .  A
C1455      C1456   1.397       .  A
C1455      F1460   1.358       .  S
C1456      C1457   1.413       .  A
C1456      F1472   1.358       .  S
C1457      C1458   1.414       .  A
C1458      F1461   1.358       .  S
C1459      C1462   1.406       .  A
C1459      C1466   1.405       .  A
C1462      C1463   1.399       .  A
C1462      F1467   1.358       .  S
C1463      C1464   1.409       .  A
C1463      F1469   1.358       .  S
C1464      C1465   1.410       .  A
C1465      C1466   1.399       .  A
C1465      F1468   1.358       .  S
C1466      F1470   1.358       .  S
C1473      C1474   1.415       .  A
C1473      C1478   1.419   1_654  A
C1473      F1491   1.357   1_554  S
C1474      C1479   1.518       .  S
C1474      C1475   1.411       .  A
C1475      C1476   1.406       .  A
C1475      F1480   1.358       .  S
C1476      C1477   1.411   1_655  A
C1476      F1492   1.358       .  S
C1477      C1478   1.411   1_554  A
C1478      F1481   1.357       .  S
C1479      C1482   1.418       .  A
C1479      C1486   1.406       .  A
C1482      C1483   1.422       .  A
C1482      F1487   1.357   1_554  S
C1483      C1484   1.412       .  A
C1483      F1489   1.357   1_554  S
C1484      C1485   1.418       .  A
C1485      C1486   1.401       .  A
C1485      F1488   1.359       .  S
C1486      F1490   1.358       .  S
C1493      C1494   1.415   1_556  A
C1493      C1498   1.410   1_556  A
C1493      F1511   1.358       .  S
C1494      C1499   1.514   1_554  S
C1494      C1495   1.412       .  A
C1495      C1496   1.410       .  A
C1495      F1500   1.357       .  S
C1496      C1497   1.407       .  A
C1496      F1512   1.357       .  S
C1497      C1498   1.408       .  A
C1498      F1501   1.359   1_554  S
C1499      C1502   1.405       .  A
C1499      C1506   1.418   1_556  A
C1502      C1503   1.403       .  A
C1502      F1507   1.358       .  S
C1503      C1504   1.418       .  A
C1503      F1509   1.359       .  S
C1504      C1505   1.411   1_556  A
C1505      C1506   1.419       .  A
C1505      F1508   1.357       .  S
C1506      F1510   1.358       .  S
