geometry optimzed in LAMMPS
_audit_creation_date              2020-11-30 
_audit_creation_method            'lammps2cif' 
_symmetry_space_group_name_H-M    'P1' 
_symmetry_Int_Tables_number       1 
_symmetry_cell_setting            triclinic 
loop_ 
_symmetry_equiv_pos_as_xyz 
  x,y,z 
_cell_length_a                    34.15610002 
_cell_length_b                    34.80279202705176 
_cell_length_c                    39.7617655605497 
_cell_angle_alpha                 89.99064002033893 
_cell_angle_beta                  90.01652715331812 
_cell_angle_gamma                 120.87309445404848 
loop_ 
_atom_site_label 
_atom_site_type_symbol 
_atom_site_fract_x 
_atom_site_fract_y 
_atom_site_fract_z 
_atom_site_charge 
In1        In  0.22163919  0.43370674  0.27324337     1.36900
C2          C  0.21253543  0.42788748  0.34013431     0.77500
O3          O  0.22075738  0.36919331  0.26595857    -0.61000
O4          O  0.28324886  0.42765484  0.27885397    -0.51900
C5          C  0.15895606  0.40966653  0.22405968     0.70100
O6          O  0.14831720  0.40624425  0.25487043    -0.46700
C7          C  0.28112599  0.51920902  0.26134016     0.74900
O8          O  0.19694887  0.39363217  0.32172997    -0.58600
O9          O  0.28634222  0.48771875  0.25114576    -0.48700
O10         O  0.22463090  0.46350690  0.32412033    -0.55000
C11         C  0.26211043  0.38598933  0.27403114     0.85000
O12         O  0.20078834  0.42536069  0.21903449    -0.56900
O13         O  0.24361452  0.50673704  0.27605746    -0.60200
In14       In  0.31321257  0.44175757  0.64423926     1.36900
C15         C  0.31419046  0.43455193  0.57739392     0.77500
O16         O  0.24828538  0.37500318  0.64572752    -0.61000
O17         O  0.24483934  0.43431370  0.64509284    -0.51900
C18         C  0.35435191  0.42181744  0.69317032     0.70100
O19         O  0.36728636  0.42642741  0.66288199    -0.46700
C20         C  0.33549912  0.52528169  0.65554679     0.74900
O21         O  0.33751561  0.47112661  0.59276587    -0.58600
O22         O  0.29957895  0.49181334  0.66669570    -0.48700
O23         O  0.29649457  0.40072624  0.59635723    -0.55000
C24         C  0.22352051  0.39218203  0.64406989     0.85000
O25         O  0.32089456  0.42688748  0.69765347    -0.56900
O26         O  0.36231235  0.51609130  0.64046496    -0.60200
In27       In  0.46327862  0.17500396  0.30503363     1.36900
C28         C  0.45006244  0.15606175  0.23901543     0.77500
O29         O  0.39487758  0.16952814  0.30143917    -0.61000
O30         O  0.44847320  0.22501965  0.32732846    -0.51900
C31         C  0.45030409  0.11860998  0.35693924     0.70100
O32         O  0.44753273  0.10660708  0.32660174    -0.46700
C33         C  0.54646693  0.24786071  0.29966746     0.74900
O34         O  0.41796816  0.14803891  0.25885973    -0.58600
O35         O  0.50987949  0.24793098  0.29651931    -0.48700
O36         O  0.48716458  0.16707151  0.25368127    -0.55000
C37         C  0.40839416  0.20658777  0.31589033     0.85000
O38         O  0.46041158  0.15858004  0.35999685    -0.56900
O39         O  0.54108587  0.21008404  0.30707967    -0.60200
In40       In  0.48652031  0.27600464  0.93437585     1.36900
C41         C  0.47625675  0.25607001  0.00005532     0.77500
O42         O  0.42072228  0.21105150  0.92980073    -0.61000
O43         O  0.48224768  0.21251937  0.91781111    -0.51900
C44         C  0.46304484  0.31393744  0.88567423     0.70100
O45         O  0.45254449  0.31410948  0.91629668    -0.46700
C46         C  0.57518112  0.33132880  0.93846501     0.74900
O47         O  0.45325309  0.27081933  0.98565908    -0.58600
O48         O  0.55742635  0.29843315  0.91842771    -0.48700
O49         O  0.50498247  0.25438290  0.98121984    -0.55000
C50         C  0.43982208  0.18906735  0.92319051     0.85000
O51         O  0.48525836  0.29465106  0.88055432    -0.56900
O52         O  0.54731347  0.33851646  0.95414460    -0.60200
In53       In  0.24046282  0.78562627  0.99261318     1.36900
C54         C  0.25367217  0.80273982  0.92733489     0.77500
O55         O  0.23499456  0.84634649  0.98938017    -0.61000
O56         O  0.29718056  0.85309714  0.00747009    -0.51900
C57         C  0.17869242  0.75143192  0.04132591     0.70100
O58         O  0.16742920  0.74284100  0.01056322    -0.46700
C59         C  0.27470953  0.73344116  0.99464545     0.74900
O60         O  0.28459817  0.80795603  0.94745158    -0.58600
O61         O  0.29041179  0.76850178  0.01236969    -0.48700
O62         O  0.21393194  0.78478134  0.94020117    -0.55000
C63         C  0.27627857  0.87229201  0.99736428     0.85000
O64         O  0.22080929  0.77732263  0.04634712    -0.56900
O65         O  0.23870201  0.72287809  0.97837016    -0.60200
In66       In  0.31934113  0.87331365  0.61988624     1.36900
C67         C  0.32311938  0.89217233  0.68594941     0.77500
O68         O  0.25419978  0.87360666  0.62018021    -0.61000
O69         O  0.25323853  0.81637424  0.60035364    -0.51900
C70         C  0.35798943  0.92697038  0.56543548     0.70100
O71         O  0.34059746  0.88522227  0.56501266    -0.46700
C72         C  0.33831105  0.80947533  0.62994415     0.74900
O73         O  0.29214168  0.88820507  0.66658725    -0.58600
O74         O  0.29860001  0.80266898  0.62653231    -0.48700
O75         O  0.35625724  0.89349350  0.67071535    -0.55000
C76         C  0.23060516  0.83432413  0.60871136     0.85000
O77         O  0.35802761  0.94208168  0.59435948    -0.56900
O78         O  0.36997188  0.84976151  0.62623796    -0.60200
In79       In  0.88221210  0.27448178  0.97721795     1.36900
C80         C  0.87571522  0.26491901  0.91078847     0.77500
O81         O  0.88414491  0.21167608  0.97367615    -0.61000
O82         O  0.82098207  0.20655733  0.98635116    -0.51900
C83         C  0.94379562  0.30547849  0.02700905     0.70100
O84         O  0.95519280  0.31671489  0.99657422    -0.46700
C85         C  0.84646301  0.32582468  0.98233716     0.74900
O86         O  0.91408072  0.28020618  0.92538982    -0.58600
O87         O  0.83173721  0.29010924  0.99909457    -0.48700
O88         O  0.84349587  0.25817627  0.93000173    -0.55000
C89         C  0.84169639  0.18655284  0.97800797     0.85000
O90         O  0.90169966  0.27845962  0.03121297    -0.56900
O91         O  0.88200434  0.33721833  0.96525426    -0.60200
In92       In  0.79979473  0.18333879  0.60940399     1.36900
C93         C  0.79066205  0.16080497  0.67419981     0.77500
O94         O  0.86361880  0.17990126  0.61305628    -0.61000
O95         O  0.86788872  0.23970269  0.59527183    -0.51900
C96         C  0.76137247  0.13133850  0.55490950     0.70100
O97         O  0.74738445  0.11797069  0.58443190    -0.46700
C98         C  0.78362983  0.24972561  0.61727553     0.74900
O99         O  0.81520664  0.15382579  0.65447791    -0.58600
O100        O  0.82256085  0.25431890  0.61943002    -0.48700
O101        O  0.76453534  0.17106985  0.65962389    -0.55000
C102        C  0.88885250  0.22020063  0.60403987     0.85000
O103        O  0.79403284  0.17111275  0.55349450    -0.56900
O104        O  0.75239923  0.21120630  0.60815335    -0.60200
In105      In  0.65049016  0.87999549  0.29884748     1.36900
C106        C  0.66763079  0.90196745  0.23407524     0.77500
O107        O  0.71812089  0.88483601  0.30300506    -0.61000
O108        O  0.65889787  0.82587940  0.32058272    -0.51900
C109        C  0.66451051  0.93476500  0.35083482     0.70100
O110        O  0.67463476  0.94885127  0.32096158    -0.46700
C111        C  0.56686753  0.81123056  0.28831676     0.74900
O112        O  0.63460382  0.90111607  0.24912146    -0.58600
O113        O  0.60271691  0.81039310  0.28307659    -0.48700
O114        O  0.69523281  0.89899851  0.25331871    -0.55000
C115        C  0.70113031  0.84571481  0.31468918     0.85000
O116        O  0.64555249  0.89297119  0.35352374    -0.56900
O117        O  0.57329351  0.84778551  0.30013338    -0.60200
In118      In  0.63454448  0.78112921  0.93062131     1.36900
C119        C  0.64511467  0.80609880  0.99484002     0.77500
O120        O  0.70226377  0.84360391  0.92458894    -0.61000
O121        O  0.64258572  0.84347261  0.90858869    -0.51900
C122        C  0.65513883  0.73886880  0.88421405     0.70100
O123        O  0.66645843  0.74032026  0.91483251    -0.46700
C124        C  0.54592901  0.73000387  0.93721216     0.74900
O125        O  0.66365694  0.78524060  0.98293975    -0.58600
O126        O  0.56408938  0.76041940  0.91518225    -0.48700
O127        O  0.62149511  0.81291453  0.97402144    -0.55000
C128        C  0.68493623  0.86606009  0.91448664     0.85000
O129        O  0.63283475  0.75784330  0.87829865    -0.56900
O130        O  0.57312250  0.72247852  0.95349655    -0.60200
In131      In  0.80265805  0.60824036  0.64400856     1.36900
C132        C  0.79347942  0.61609192  0.57935253     0.77500
O133        O  0.87145623  0.66965326  0.65248267    -0.61000
O134        O  0.86885249  0.61418137  0.62834325    -0.51900
C135        C  0.76499140  0.63150986  0.69282053     0.70100
O136        O  0.75549896  0.63214232  0.66217542    -0.46700
C137        C  0.77577558  0.52415226  0.65779746     0.74900
O138        O  0.81156536  0.65005467  0.59826062    -0.58600
O139        O  0.81228350  0.55696629  0.66892385    -0.48700
O140        O  0.77236842  0.57907223  0.59449565    -0.55000
C141        C  0.89327580  0.65397715  0.63818661     0.85000
O142        O  0.79327422  0.61922681  0.69784498    -0.56900
O143        O  0.75095409  0.53451306  0.64119970    -0.60200
In144      In  0.89621078  0.62541576  0.28251907     1.36900
C145        C  0.91049876  0.63311913  0.34849926     0.77500
O146        O  0.89693633  0.68992694  0.27533908    -0.61000
O147        O  0.83554652  0.63184819  0.29071349    -0.51900
C148        C  0.95923903  0.64925252  0.23420891     0.70100
O149        O  0.96928107  0.65184401  0.26502635    -0.46700
C150        C  0.83357640  0.54050323  0.27046542     0.74900
O151        O  0.89852644  0.59723519  0.33284970    -0.58600
O152        O  0.82971932  0.57295961  0.26075738    -0.48700
O153        O  0.92266896  0.66656865  0.32980679    -0.55000
C154        C  0.85614110  0.67326109  0.28491937     0.85000
O155        O  0.91768127  0.63459780  0.22871638    -0.56900
O156        O  0.87112527  0.55166539  0.28462109    -0.60200
C157        C  0.88951510  0.70779911  0.44617060    -0.17900
C158        C  0.86866821  0.70441954  0.47726979    -0.20100
C159        C  0.84606872  0.66343612  0.49451966     0.20600
C160        C  0.84493949  0.62563033  0.48038090    -0.03000
C161        C  0.86672284  0.62925016  0.44938598    -0.06100
C162        C  0.88859338  0.67036783  0.43196356     0.20800
C163        C  0.86565303  0.59138425  0.43548372     0.19000
C164        C  0.84367833  0.55058039  0.45290510    -0.17600
C165        C  0.82200646  0.54696177  0.48350521    -0.19800
C166        C  0.82209369  0.58413285  0.49721418     0.20500
C167        C  0.80083227  0.58067749  0.52799782    -0.32800
C168        C  0.80367656  0.61852788  0.54314240     0.01200
C169        C  0.82575296  0.65975702  0.52606166    -0.24100
C170        C  0.90726684  0.67272141  0.39999148    -0.28700
C171        C  0.90388775  0.63433385  0.38517174     0.06800
C172        C  0.88462659  0.59432105  0.40367530    -0.27400
H173        H  0.90609331  0.73962268  0.43311656     0.11600
H174        H  0.87002330  0.73382689  0.48773984     0.12700
H175        H  0.84262815  0.52124527  0.44260029     0.11800
H176        H  0.80506013  0.51502420  0.49641885     0.11000
H177        H  0.78485353  0.54901097  0.54131627     0.16400
H178        H  0.82876749  0.68921700  0.53791351     0.12300
H179        H  0.92167156  0.70361424  0.38577230     0.15200
H180        H  0.88156214  0.56454639  0.39237007     0.14900
C181        C  0.66774345  0.68801016  0.73670432    -0.17900
C182        C  0.65201178  0.70227436  0.76370306    -0.20100
C183        C  0.66653673  0.70179474  0.79668559     0.20600
C184        C  0.69675460  0.68625903  0.80260456    -0.03000
C185        C  0.71243265  0.67160801  0.77535976    -0.06100
C186        C  0.69812603  0.67278154  0.74220196     0.20800
C187        C  0.74287106  0.65633442  0.78129391     0.19000
C188        C  0.75723293  0.65564261  0.81425584    -0.17600
C189        C  0.74197689  0.67044504  0.84117686    -0.19800
C190        C  0.71184455  0.68596764  0.83566660     0.20500
C191        C  0.69720239  0.70190682  0.86251727    -0.32800
C192        C  0.66773797  0.71825399  0.85672505     0.01200
C193        C  0.65208020  0.71740593  0.82373881    -0.24100
C194        C  0.71484369  0.65919861  0.71516937    -0.28700
C195        C  0.74558244  0.64436609  0.72095899     0.06800
C196        C  0.75895723  0.64260317  0.75415397    -0.27400
H197        H  0.65633094  0.68912676  0.71149404     0.11600
H198        H  0.62878626  0.71413037  0.75872824     0.12700
H199        H  0.78065618  0.64401374  0.81920057     0.11800
H200        H  0.75396641  0.66998459  0.86631159     0.11000
H201        H  0.70951601  0.70250830  0.88775663     0.16400
H202        H  0.62930598  0.72985651  0.81894115     0.12300
H203        H  0.70431943  0.66057634  0.68969248     0.15200
H204        H  0.78254122  0.63110533  0.75890074     0.14900
C205        C  0.84144476  0.84295128  0.29401268    -0.17900
C206        C  0.86269842  0.81830036  0.28822484    -0.20100
C207        C  0.83878728  0.77182162  0.29330859     0.20600
C208        C  0.79346885  0.75013552  0.30529034    -0.03000
C209        C  0.77216185  0.77499476  0.31131355    -0.06100
C210        C  0.79605350  0.82150690  0.30511814     0.20800
C211        C  0.72645136  0.75302824  0.32242117     0.19000
C212        C  0.70287135  0.70674896  0.32831399    -0.17600
C213        C  0.72404738  0.68212572  0.32244469    -0.19800
C214        C  0.76902702  0.70343032  0.31050730     0.20500
C215        C  0.78975743  0.67870052  0.30328025    -0.32800
C216        C  0.83456669  0.69991386  0.29085353     0.01200
C217        C  0.85914372  0.74653179  0.28622771    -0.24100
C218        C  0.77350548  0.84538160  0.30871029    -0.28700
C219        C  0.72734637  0.82316576  0.31810976     0.06800
C220        C  0.70448631  0.77736658  0.32601628    -0.27400
H221        H  0.86024256  0.87864711  0.28922424     0.11600
H222        H  0.89756662  0.83547515  0.27922882     0.12700
H223        H  0.66778209  0.68947184  0.33686959     0.11800
H224        H  0.70499750  0.64629528  0.32672264     0.11000
H225        H  0.77091067  0.64281446  0.30737471     0.16400
H226        H  0.89396849  0.76305301  0.27714965     0.12300
H227        H  0.79116720  0.88070264  0.30252849     0.15200
H228        H  0.66878898  0.76007354  0.33316736     0.14900
C229        C  0.73399161  0.87026375  0.13584591    -0.17900
C230        C  0.72928336  0.85373195  0.10306670    -0.20100
C231        C  0.69229739  0.84636935  0.08294992     0.20600
C232        C  0.66011814  0.85654486  0.09591905    -0.03000
C233        C  0.66475040  0.87304937  0.12911769    -0.06100
C234        C  0.70171811  0.87962532  0.14920600     0.20800
C235        C  0.63173312  0.88174202  0.14249774     0.19000
C236        C  0.59503151  0.87492643  0.12223172    -0.17600
C237        C  0.59078281  0.85918485  0.08921763    -0.19800
C238        C  0.62293507  0.84957387  0.07592895     0.20500
C239        C  0.61841780  0.83286168  0.04310484    -0.32800
C240        C  0.65007152  0.82215809  0.03005588     0.01200
C241        C  0.68686645  0.82889193  0.05020173    -0.24100
C242        C  0.70471294  0.89350613  0.18275593    -0.28700
C243        C  0.67063790  0.89988325  0.19691519     0.06800
C244        C  0.63493352  0.89518790  0.17628252    -0.27400
H245        H  0.76254456  0.87503807  0.15097035     0.11600
H246        H  0.75442262  0.84633833  0.09354230     0.12700
H247        H  0.56930690  0.88131151  0.13204059     0.11800
H248        H  0.56198456  0.85399751  0.07419140     0.11000
H249        H  0.58990972  0.82780663  0.02774142     0.16400
H250        H  0.71162067  0.82125060  0.04019964     0.12300
H251        H  0.73212971  0.89656431  0.19846072     0.15200
H252        H  0.60824145  0.89949277  0.18700253     0.14900
C253        C  0.83240169  0.42597475  0.68786770    -0.17900
C254        C  0.83528944  0.38844051  0.68015549    -0.20100
C255        C  0.80298859  0.35513262  0.65886710     0.20600
C256        C  0.76592190  0.35821090  0.64668377    -0.03000
C257        C  0.76333294  0.39644007  0.65411867    -0.06100
C258        C  0.79743138  0.43086138  0.67409933     0.20800
C259        C  0.72820728  0.40136619  0.64005769     0.19000
C260        C  0.69396872  0.36630392  0.62086896    -0.17600
C261        C  0.69603514  0.32784978  0.61403962    -0.19800
C262        C  0.73268189  0.32411448  0.62591184     0.20500
C263        C  0.73761496  0.28776949  0.61661812    -0.32800
C264        C  0.77604533  0.28618212  0.62721093     0.01200
C265        C  0.80795345  0.31949087  0.64880141    -0.24100
C266        C  0.79791425  0.47090546  0.67811448    -0.28700
C267        C  0.76593704  0.47789234  0.66136178     0.06800
C268        C  0.72975701  0.44232797  0.64369816    -0.27400
H269        H  0.85855228  0.45201275  0.70348732     0.11600
H270        H  0.86352724  0.38605881  0.69010030     0.12700
H271        H  0.66636315  0.36919494  0.61029201     0.11800
H272        H  0.66983479  0.30176148  0.59848282     0.11000
H273        H  0.71257952  0.26168636  0.60040803     0.16400
H274        H  0.83699263  0.31774257  0.65780907     0.12300
H275        H  0.82554490  0.49800542  0.69210696     0.15200
H276        H  0.70476273  0.44748427  0.63095378     0.14900
C277        C  0.75619607  0.11310666  0.43107377    -0.17900
C278        C  0.74273546  0.08561636  0.40254566    -0.20100
C279        C  0.71467278  0.03900621  0.40566200     0.20600
C280        C  0.69949657  0.01997479  0.43786430    -0.03000
C281        C  0.71277640  0.04778297  0.46666730    -0.06100
C282        C  0.74169025  0.09451475  0.46326480     0.20800
C283        C  0.69788261  0.02871573  0.49889035     0.19000
C284        C  0.66967693  0.98211304  0.50199139    -0.17600
C285        C  0.65689470  0.95456187  0.47352707    -0.19800
C286        C  0.67175616  0.97312601  0.44137905     0.20500
C287        C  0.65988081  0.94564762  0.41276054    -0.32800
C288        C  0.67505152  0.96434455  0.38054423     0.01200
C289        C  0.70215383  0.01110809  0.37722029    -0.24100
C290        C  0.75643411  0.12168803  0.49215254    -0.28700
C291        C  0.74242282  0.10283514  0.52446292     0.06800
C292        C  0.71238476  0.05639621  0.52751536    -0.27400
H293        H  0.77833392  0.14892077  0.42797028     0.11600
H294        H  0.75471925  0.10080830  0.37804898     0.12700
H295        H  0.65798562  0.96688417  0.52650786     0.11800
H296        H  0.63557378  0.91865961  0.47669797     0.11000
H297        H  0.63913916  0.90962543  0.41562399     0.16400
H298        H  0.71430044  0.02574547  0.35258071     0.12300
H299        H  0.77945473  0.15746240  0.48950901     0.15200
H300        H  0.70151127  0.04160214  0.55224925     0.14900
C301        C  0.70389191  0.04842926  0.94015990    -0.17900
C302        C  0.68292980  0.00452173  0.92808850    -0.20100
C303        C  0.70789953  0.98289083  0.92491552     0.20600
C304        C  0.75459226  0.00586273  0.93345909    -0.03000
C305        C  0.77571914  0.05012667  0.94568191    -0.06100
C306        C  0.75012796  0.07136404  0.94931626     0.20800
C307        C  0.82228214  0.07290897  0.95462345     0.19000
C308        C  0.84736661  0.05144530  0.95105719    -0.17600
C309        C  0.82627481  0.00736542  0.93934890    -0.19800
C310        C  0.77985140  0.98415990  0.93079176     0.20500
C311        C  0.75768470  0.93899484  0.92126532    -0.32800
C312        C  0.71063304  0.91534277  0.91450811     0.01200
C313        C  0.68641581  0.93799435  0.91497701    -0.24100
C314        C  0.77135177  0.11525456  0.96180241    -0.28700
C315        C  0.81791507  0.13830305  0.97031425     0.06800
C316        C  0.84308388  0.11687741  0.96673831    -0.27400
H317        H  0.68381674  0.06431270  0.94262026     0.11600
H318        H  0.64700515  0.98723371  0.92173323     0.12700
H319        H  0.88318399  0.06858497  0.95768885     0.11800
H320        H  0.84615150  0.99120945  0.93743575     0.11000
H321        H  0.77643597  0.92156834  0.92111309     0.16400
H322        H  0.65001889  0.91979901  0.91014422     0.12300
H323        H  0.75205881  0.13203143  0.96374007     0.15200
H324        H  0.87912218  0.13476112  0.97283918     0.14900
C325        C  0.90923561  0.21616779  0.80222078    -0.17900
C326        C  0.89465015  0.19693052  0.77026064    -0.20100
C327        C  0.85214507  0.18727882  0.75753033     0.20600
C328        C  0.82392502  0.19679463  0.77734016    -0.03000
C329        C  0.83858259  0.21607187  0.80961039    -0.06100
C330        C  0.88152409  0.22596042  0.82217926     0.20800
C331        C  0.81024994  0.22558956  0.82921557     0.19000
C332        C  0.76782505  0.21607658  0.81657264    -0.17600
C333        C  0.75365255  0.19766127  0.78449975    -0.19800
C334        C  0.78149083  0.18807197  0.76461160     0.20500
C335        C  0.76854214  0.17189551  0.73167549    -0.32800
C336        C  0.79740742  0.16428126  0.71116288     0.01200
C337        C  0.83835161  0.17037046  0.72476590    -0.24100
C338        C  0.89541375  0.24458537  0.85465555    -0.28700
C339        C  0.86648327  0.25282878  0.87465426     0.06800
C340        C  0.82437523  0.24384715  0.86136895    -0.27400
H341        H  0.94223898  0.22339337  0.81132200     0.11600
H342        H  0.91690876  0.19009974  0.75530828     0.12700
H343        H  0.74566637  0.22315130  0.83144258     0.11800
H344        H  0.72105657  0.19128133  0.77512888     0.11000
H345        H  0.73722684  0.16776641  0.72133296     0.16400
H346        H  0.86119572  0.16529891  0.70898987     0.12300
H347        H  0.92764858  0.25090139  0.86481044     0.15200
H348        H  0.80179057  0.25005955  0.87650999     0.14900
C349        C  0.08764779  0.81882318  0.64939945    -0.17900
C350        C  0.04065228  0.79285536  0.65461351    -0.20100
C351        C  0.01542291  0.74983956  0.64073483     0.20600
C352        C  0.03757415  0.73282856  0.62110930    -0.03000
C353        C  0.08508987  0.75904874  0.61587858    -0.06100
C354        C  0.11014830  0.80215651  0.63023453     0.20800
C355        C  0.10759793  0.74190014  0.59681227     0.19000
C356        C  0.08215001  0.69906134  0.58250753    -0.17600
C357        C  0.03489840  0.67315994  0.58747222    -0.19800
C358        C  0.01234753  0.68956751  0.60700690     0.20500
C359        C  0.96512534  0.66357629  0.61286294    -0.32800
C360        C  0.94304175  0.68044024  0.63263588     0.01200
C361        C  0.96842416  0.72359642  0.64630362    -0.24100
C362        C  0.15745604  0.82749274  0.62594668    -0.28700
C363        C  0.18035134  0.81008306  0.60805482     0.06800
C364        C  0.15521613  0.76750547  0.59313530    -0.27400
H365        H  0.10647746  0.85182485  0.66061950     0.11600
H366        H  0.02405370  0.80634828  0.66967698     0.12700
H367        H  0.09884684  0.68543867  0.56769862     0.11800
H368        H  0.01606096  0.64012601  0.57630193     0.11000
H369        H  0.94558592  0.63040919  0.60194680     0.16400
H370        H  0.95156284  0.73683324  0.66135006     0.12300
H371        H  0.17669707  0.86007426  0.63781774     0.15200
H372        H  0.17281416  0.75386016  0.57945139     0.14900
C373        C  0.02079970  0.66743073  0.08572187    -0.17900
C374        C  0.99042260  0.65356899  0.11281879    -0.20100
C375        C  0.00673087  0.66424837  0.14594370     0.20600
C376        C  0.05410251  0.68857427  0.15195432    -0.03000
C377        C  0.08479695  0.70278534  0.12455118    -0.06100
C378        C  0.06803732  0.69237328  0.09125183     0.20800
C379        C  0.13217128  0.72785926  0.13045951     0.19000
C380        C  0.14847908  0.73780785  0.16365264    -0.17600
C381        C  0.11806994  0.72353448  0.19081012    -0.19800
C382        C  0.07077114  0.69916060  0.18526574     0.20500
C383        C  0.03984773  0.68564604  0.21232290    -0.32800
C384        C  0.99253361  0.66212662  0.20635313     0.01200
C385        C  0.97639966  0.65139248  0.17308969    -0.24100
C386        C  0.09872343  0.70757699  0.06406993    -0.28700
C387        C  0.14596260  0.73339995  0.06974361     0.06800
C388        C  0.16236155  0.74299811  0.10306967    -0.27400
H389        H  0.00730728  0.65900813  0.06039845     0.11600
H390        H  0.95409667  0.63472440  0.10783420     0.12700
H391        H  0.18482426  0.75693384  0.16861706     0.11800
H392        H  0.13155141  0.73191086  0.21614073     0.11000
H393        H  0.05253606  0.69407278  0.23786597     0.16400
H394        H  0.94000624  0.63307013  0.16824657     0.12300
H395        H  0.08583418  0.69993857  0.03853405     0.15200
H396        H  0.19875943  0.76267382  0.10774664     0.14900
C397        C  0.36463605  0.86621644  0.83370340    -0.17900
C398        C  0.37510544  0.88008794  0.80013367    -0.20100
C399        C  0.34228016  0.88030467  0.77896608     0.20600
C400        C  0.29896650  0.86782592  0.79223921    -0.03000
C401        C  0.28812481  0.85308762  0.82599215    -0.06100
C402        C  0.32093043  0.85168806  0.84663389     0.20800
C403        C  0.24408174  0.83864204  0.83876122     0.19000
C404        C  0.21202981  0.84099806  0.81816108    -0.17600
C405        C  0.22284542  0.85586002  0.78486087    -0.19800
C406        C  0.26588497  0.86852947  0.77147121     0.20500
C407        C  0.27567648  0.88007026  0.73734253    -0.32800
C408        C  0.31780028  0.89005637  0.72327732     0.01200
C409        C  0.35134157  0.89107825  0.74453675    -0.24100
C410        C  0.30916182  0.83498621  0.87957344    -0.28700
C411        C  0.26475685  0.81894004  0.89210929     0.06800
C412        C  0.23261048  0.82147142  0.87165500    -0.27400
H413        H  0.39042541  0.86581365  0.84933085     0.11600
H414        H  0.40866941  0.88992252  0.79056198     0.12700
H415        H  0.17826801  0.83057795  0.82761498     0.11800
H416        H  0.19710171  0.85644382  0.76931266     0.11000
H417        H  0.24939031  0.87881880  0.72128064     0.16400
H418        H  0.38373689  0.89840494  0.73402842     0.12300
H419        H  0.33454330  0.83401248  0.89535253     0.15200
H420        H  0.19877295  0.81027025  0.88136960     0.14900
C421        C  0.39288729  0.69412969  0.90485883    -0.17900
C422        C  0.35278037  0.69309879  0.91363911    -0.20100
C423        C  0.34311727  0.69621591  0.94746879     0.20600
C424        C  0.37292193  0.69814104  0.97289255    -0.03000
C425        C  0.41284836  0.69806383  0.96406870    -0.06100
C426        C  0.42351589  0.69753034  0.92981031     0.20800
C427        C  0.44362124  0.70173765  0.98934517     0.19000
C428        C  0.43348429  0.70404312  0.02324358    -0.17600
C429        C  0.39442178  0.70522641  0.03192536    -0.19800
C430        C  0.36458578  0.70345831  0.00688445     0.20500
C431        C  0.32870946  0.71047558  0.01481936    -0.32800
C432        C  0.30075525  0.71116444  0.98924044     0.01200
C433        C  0.30626727  0.70120608  0.95602328    -0.24100
C434        C  0.46602453  0.70364305  0.92102336    -0.28700
C435        C  0.49761070  0.70966016  0.94601387     0.06800
C436        C  0.48548192  0.70642783  0.98011185    -0.27400
H437        H  0.40060878  0.69362859  0.87849032     0.11600
H438        H  0.33031941  0.69185056  0.89386925     0.12700
H439        H  0.45677055  0.70689760  0.04293131     0.11800
H440        H  0.38835961  0.70903299  0.05813424     0.11000
H441        H  0.32446659  0.71846862  0.04042473     0.16400
H442        H  0.28512397  0.70256731  0.93624192     0.12300
H443        H  0.47574056  0.70658969  0.89476248     0.15200
H444        H  0.51039074  0.71211201  0.99936759     0.14900
C445        C  0.41863679  0.01394325  0.97632482    -0.17900
C446        C  0.44163544  0.05679902  0.96223916    -0.20100
C447        C  0.41719000  0.07590303  0.94940964     0.20600
C448        C  0.36907614  0.05146646  0.95047748    -0.03000
C449        C  0.34586520  0.00816652  0.96461900    -0.06100
C450        C  0.37083822  0.98945969  0.97772653     0.20800
C451        C  0.29775262  0.98357611  0.96552275     0.19000
C452        C  0.27329773  0.00252209  0.95237922    -0.17600
C453        C  0.29633988  0.04577794  0.93888052    -0.19800
C454        C  0.34419019  0.07061610  0.93802339     0.20500
C455        C  0.36763399  0.11490094  0.92625367    -0.32800
C456        C  0.41556141  0.13998199  0.92648097     0.01200
C457        C  0.44007801  0.11972620  0.93686629    -0.24100
C458        C  0.34758936  0.94611691  0.99112973    -0.28700
C459        C  0.29970599  0.92081594  0.99097473     0.06800
C460        C  0.27496399  0.94004049  0.97871659    -0.27400
H461        H  0.43826506  0.99991121  0.98609891     0.11600
H462        H  0.47858195  0.07520482  0.96170089     0.12700
H463        H  0.23634851  0.98397111  0.95268470     0.11800
H464        H  0.27672771  0.05993122  0.92933554     0.11000
H465        H  0.34867575  0.13057188  0.91847102     0.16400
H466        H  0.47704154  0.13920228  0.93762977     0.12300
H467        H  0.36684660  0.93120673  0.99999885     0.15200
H468        H  0.23801725  0.92047356  0.97814493     0.14900
C469        C  0.72950638  0.35367794  0.02733898    -0.17900
C470        C  0.69053064  0.35597830  0.02070027    -0.20100
C471        C  0.67981727  0.36138552  0.98760527     0.20600
C472        C  0.71044912  0.36805033  0.96131290    -0.03000
C473        C  0.75027378  0.36668821  0.96813882    -0.06100
C474        C  0.75863534  0.35733458  0.00105958     0.20800
C475        C  0.77952312  0.37075105  0.94153761     0.19000
C476        C  0.77010900  0.37862381  0.90873139    -0.17600
C477        C  0.73011402  0.37892572  0.90186192    -0.19800
C478        C  0.69930076  0.37200654  0.92776967     0.20500
C479        C  0.65588624  0.36486525  0.92042567    -0.32800
C480        C  0.62411198  0.35477410  0.94626923     0.01200
C481        C  0.63721606  0.35605491  0.97993486    -0.24100
C482        C  0.79356064  0.34804263  0.00651087    -0.28700
C483        C  0.82053057  0.34883459  0.97957885     0.06800
C484        C  0.81529179  0.36296245  0.94766711    -0.27400
H485        H  0.73575590  0.34704855  0.05280845     0.11600
H486        H  0.66748908  0.35105194  0.04117544     0.12700
H487        H  0.79238497  0.38208328  0.88808468     0.11800
H488        H  0.72230653  0.38255827  0.87605814     0.11000
H489        H  0.64552634  0.36366247  0.89447664     0.16400
H490        H  0.61231112  0.34754604  0.99979591     0.12300
H491        H  0.79775406  0.33722226  0.03113527     0.15200
H492        H  0.83582065  0.36310649  0.92681099     0.14900
C493        C  0.67565143  0.43314986  0.23693942    -0.17900
C494        C  0.63485038  0.39294329  0.24269927    -0.20100
C495        C  0.63367054  0.36078690  0.26462990     0.20600
C496        C  0.67422125  0.36837358  0.28003995    -0.03000
C497        C  0.71546573  0.40910075  0.27429454    -0.06100
C498        C  0.71589603  0.44193190  0.25316799     0.20800
C499        C  0.75582731  0.41762033  0.29063372     0.19000
C500        C  0.75486747  0.38465704  0.31159873    -0.17600
C501        C  0.71400170  0.34411990  0.31711949    -0.19800
C502        C  0.67331578  0.33579174  0.30179539     0.20500
C503        C  0.63168383  0.29583183  0.30805681    -0.32800
C504        C  0.59106835  0.28878543  0.29331404     0.01200
C505        C  0.59250022  0.32142210  0.27166635    -0.24100
C506        C  0.75591657  0.48382003  0.24997824    -0.28700
C507        C  0.79547125  0.49358810  0.26788915     0.06800
C508        C  0.79577536  0.45973875  0.28705842    -0.27400
H509        H  0.67548856  0.45786119  0.22045887     0.11600
H510        H  0.60399374  0.38729728  0.23040014     0.12700
H511        H  0.78555846  0.39058090  0.32427693     0.11800
H512        H  0.71410028  0.31955513  0.33379943     0.11000
H513        H  0.63068951  0.27076897  0.32481040     0.16400
H514        H  0.56134668  0.31594434  0.25994488     0.12300
H515        H  0.75553569  0.50963175  0.23496886     0.15200
H516        H  0.82618093  0.46704592  0.30088682     0.14900
C517        C  0.37549316  0.94201400  0.44063312    -0.17900
C518        C  0.38887669  0.96858119  0.41143792    -0.20100
C519        C  0.40974160  0.01538957  0.41360359     0.20600
C520        C  0.41750546  0.03538833  0.44575110    -0.03000
C521        C  0.40394569  0.00855103  0.47524952    -0.06100
C522        C  0.38270548  0.96161740  0.47271447     0.20800
C523        C  0.41112043  0.02875053  0.50725721     0.19000
C524        C  0.43221361  0.07546281  0.50951985    -0.17600
C525        C  0.44564403  0.10191176  0.48046396    -0.19800
C526        C  0.43815788  0.08221902  0.44849190     0.20500
C527        C  0.45005855  0.10863621  0.41930069    -0.32800
C528        C  0.44144936  0.08926548  0.38698759     0.01200
C529        C  0.42198630  0.04246946  0.38436510    -0.24100
C530        C  0.36867298  0.93524603  0.50224620    -0.28700
C531        C  0.37528060  0.95516106  0.53436935     0.06800
C532        C  0.39670924  0.00203548  0.53645925    -0.27400
H533        H  0.35918838  0.90601715  0.43808740     0.11600
H534        H  0.38250538  0.95241716  0.38710664     0.12700
H535        H  0.43807235  0.09159811  0.53381881     0.11800
H536        H  0.46149776  0.13785960  0.48301186     0.11000
H537        H  0.46519486  0.14452437  0.42181711     0.16400
H538        H  0.41512779  0.02705443  0.35970954     0.12300
H539        H  0.35193452  0.89914889  0.50017431     0.15200
H540        H  0.40186194  0.01777971  0.56087143     0.14900
C541        C  0.38830125  0.20511602  0.10752083    -0.17900
C542        C  0.38284991  0.18763822  0.14016487    -0.20100
C543        C  0.41508073  0.17832273  0.15383616     0.20600
C544        C  0.45241703  0.18547838  0.13392790    -0.03000
C545        C  0.45787838  0.20307204  0.10094790    -0.06100
C546        C  0.42601460  0.21354956  0.08777299     0.20800
C547        C  0.49571039  0.21089718  0.08142252     0.19000
C548        C  0.52719665  0.20033258  0.09460923    -0.17600
C549        C  0.52203586  0.18337292  0.12726134    -0.19800
C550        C  0.48520648  0.17648857  0.14733741     0.20500
C551        C  0.48196178  0.16296365  0.18106622    -0.32800
C552        C  0.44639473  0.15825701  0.20178267     0.01200
C553        C  0.41196855  0.16420022  0.18752579    -0.24100
C554        C  0.43245904  0.23216481  0.05517889    -0.28700
C555        C  0.47022009  0.24003397  0.03555059     0.06800
C556        C  0.50155809  0.22919744  0.04906585    -0.27400
H557        H  0.36322612  0.21252569  0.09786319     0.11600
H558        H  0.35385156  0.18225934  0.15498386     0.12700
H559        H  0.55627159  0.20582414  0.07982117     0.11800
H560        H  0.54738763  0.17643224  0.13704710     0.11000
H561        H  0.50858237  0.15850354  0.19173167     0.16400
H562        H  0.38457139  0.16103551  0.20328140     0.12300
H563        H  0.40780266  0.23977142  0.04492014     0.15200
H564        H  0.53066864  0.23478693  0.03423307     0.14900
C565        C  0.27544283  0.62195895  0.68411446    -0.17900
C566        C  0.27608510  0.66209579  0.68051311    -0.20100
C567        C  0.31183086  0.69803579  0.66318406     0.20600
C568        C  0.34800562  0.69420243  0.65002256    -0.03000
C569        C  0.34737985  0.65360532  0.65370574    -0.06100
C570        C  0.31066790  0.61731773  0.67056414     0.20800
C571        C  0.38260897  0.64884678  0.63966446     0.19000
C572        C  0.41869956  0.68522975  0.62273998    -0.17600
C573        C  0.41937800  0.72565788  0.61913844    -0.19800
C574        C  0.38390787  0.73036192  0.63232175     0.20500
C575        C  0.38258422  0.76974078  0.62711065    -0.32800
C576        C  0.34521635  0.77238409  0.63884465     0.01200
C577        C  0.31092495  0.73707407  0.65767102    -0.24100
C578        C  0.30889433  0.57644209  0.67270460    -0.28700
C579        C  0.34287344  0.57080603  0.65780771     0.06800
C580        C  0.38019898  0.60734128  0.64186425    -0.27400
H581        H  0.24702754  0.59430491  0.69704390     0.11600
H582        H  0.24812446  0.66473492  0.69071293     0.12700
H583        H  0.44604712  0.68219557  0.61182123     0.11800
H584        H  0.44721164  0.75295075  0.60550018     0.11000
H585        H  0.40910375  0.79712009  0.61262284     0.16400
H586        H  0.28248898  0.73947927  0.66721962     0.12300
H587        H  0.27989236  0.54838642  0.68484930     0.15200
H588        H  0.40629064  0.60301104  0.63010433     0.14900
C589        C  0.08090740  0.24744645  0.62724894    -0.17900
C590        C  0.03397000  0.22314329  0.62082183    -0.20100
C591        C  0.00983494  0.24540466  0.61603830     0.20600
C592        C  0.03339199  0.29263988  0.61721294    -0.03000
C593        C  0.08047515  0.31704808  0.62413118    -0.06100
C594        C  0.10431780  0.29432563  0.62934524     0.20800
C595        C  0.10354663  0.36417457  0.62618973     0.19000
C596        C  0.07977651  0.38658182  0.62069237    -0.17600
C597        C  0.03318632  0.36241745  0.61366457    -0.19800
C598        C  0.00976042  0.31555548  0.61209506     0.20500
C599        C  0.96287658  0.29123256  0.60621574    -0.32800
C600        C  0.93889504  0.24426763  0.60603036     0.01200
C601        C  0.96246620  0.22137903  0.61076230    -0.24100
C602        C  0.15108417  0.31893486  0.63664664    -0.28700
C603        C  0.17395859  0.36580984  0.63901216     0.06800
C604        C  0.15001485  0.38816062  0.63375898    -0.27400
H605        H  0.09878701  0.22953624  0.63099269     0.11600
H606        H  0.01650035  0.18694874  0.61982662     0.12700
H607        H  0.09715964  0.42276706  0.62204304     0.11800
H608        H  0.01535794  0.38036526  0.60979803     0.11000
H609        H  0.94470501  0.30900050  0.60304725     0.16400
H610        H  0.94392566  0.18510877  0.61080988     0.12300
H611        H  0.16968650  0.30170666  0.64024051     0.15200
H612        H  0.16769774  0.42439628  0.63507064     0.14900
C613        C  0.45637694  0.37106891  0.73820405    -0.17900
C614        C  0.47100269  0.35554562  0.76517488    -0.20100
C615        C  0.45445511  0.35367324  0.79788270     0.20600
C616        C  0.42372560  0.36867203  0.80354994    -0.03000
C617        C  0.40896642  0.38436610  0.77630380    -0.06100
C618        C  0.42487844  0.38502397  0.74336391     0.20800
C619        C  0.37748937  0.39843407  0.78196080     0.19000
C620        C  0.36197532  0.39786733  0.81475464    -0.17600
C621        C  0.37652424  0.38232272  0.84166003    -0.19800
C622        C  0.40699942  0.36717134  0.83632890     0.20500
C623        C  0.42046052  0.34999223  0.86311332    -0.32800
C624        C  0.45035505  0.33405242  0.85765370     0.01200
C625        C  0.46750656  0.33645739  0.82490116    -0.24100
C626        C  0.40815284  0.39853103  0.71617164    -0.28700
C627        C  0.37543948  0.41101301  0.72155945     0.06800
C628        C  0.36111749  0.41171897  0.75467128    -0.27400
H629        H  0.46921272  0.37152568  0.71319717     0.11600
H630        H  0.49486146  0.34443020  0.76035666     0.12700
H631        H  0.33796332  0.40880884  0.81954158     0.11800
H632        H  0.36348443  0.38165276  0.86661833     0.11000
H633        H  0.40706406  0.34835134  0.88812259     0.16400
H634        H  0.49075443  0.32451455  0.82034038     0.12300
H635        H  0.41960077  0.39814695  0.69081472     0.15200
H636        H  0.33633568  0.42178015  0.75920581     0.14900
C637        C  0.47662906  0.66837262  0.22941039    -0.17900
C638        C  0.43579572  0.62808007  0.22428711    -0.20100
C639        C  0.39625654  0.61906014  0.24165154     0.20600
C640        C  0.39729820  0.65158536  0.26345393    -0.03000
C641        C  0.43843915  0.69262896  0.26824619    -0.06100
C642        C  0.47834891  0.70049347  0.25162397     0.20800
C643        C  0.44001834  0.72507241  0.29048900     0.19000
C644        C  0.40014076  0.71618749  0.30741048    -0.17600
C645        C  0.35946498  0.67508712  0.30310243    -0.19800
C646        C  0.35780659  0.64234265  0.28148691     0.20500
C647        C  0.31818989  0.59976582  0.27880924    -0.32800
C648        C  0.31797789  0.56651736  0.25849117     0.01200
C649        C  0.35647192  0.57710911  0.23897218    -0.24100
C650        C  0.51964076  0.73984061  0.25808659    -0.28700
C651        C  0.52179886  0.77200862  0.28056635     0.06800
C652        C  0.48173982  0.76508035  0.29613138    -0.27400
H653        H  0.50703964  0.67413140  0.21638995     0.11600
H654        H  0.43546356  0.60340765  0.20746287     0.12700
H655        H  0.40065423  0.74061053  0.32458089     0.11800
H656        H  0.32949867  0.66860899  0.31714168     0.11000
H657        H  0.28859249  0.59170492  0.29401550     0.16400
H658        H  0.35641291  0.55169782  0.22314333     0.12300
H659        H  0.55039483  0.74524784  0.24578195     0.15200
H660        H  0.48339629  0.78983420  0.31354004     0.14900
C661        C  0.97367343  0.30200854  0.14849362    -0.17900
C662        C  0.00325616  0.31669649  0.17617728    -0.20100
C663        C  0.04945223  0.34958827  0.17226644     0.20600
C664        C  0.06589265  0.36775344  0.13997581    -0.03000
C665        C  0.03598018  0.35282349  0.11194862    -0.06100
C666        C  0.98968991  0.31979675  0.11630016     0.20800
C667        C  0.05244715  0.37072024  0.07960622     0.19000
C668        C  0.09862959  0.40375284  0.07572444    -0.17600
C669        C  0.12822736  0.41850306  0.10343558    -0.19800
C670        C  0.11227893  0.40053024  0.13560700     0.20500
C671        C  0.14200386  0.41435772  0.16337283    -0.32800
C672        C  0.12605129  0.39631333  0.19566611     0.01200
C673        C  0.07953501  0.36424262  0.19995885    -0.24100
C674        C  0.96021378  0.30490941  0.08841232    -0.28700
C675        C  0.97621875  0.32215397  0.05593880     0.06800
C676        C  0.02252312  0.35518394  0.05177991    -0.27400
H677        H  0.93820308  0.27654409  0.15226570     0.11600
H678        H  0.98998150  0.30221107  0.20066787     0.12700
H679        H  0.11195106  0.41805542  0.05120266     0.11800
H680        H  0.16373940  0.44383610  0.09964271     0.11000
H681        H  0.17777020  0.43916072  0.15981470     0.16400
H682        H  0.06704330  0.34989233  0.22461816     0.12300
H683        H  0.92465851  0.27955281  0.09202800     0.15200
H684        H  0.03520567  0.36885768  0.02698769     0.14900
C685        C  0.38436221  0.36982634  0.32450978    -0.17900
C686        C  0.40339253  0.34372411  0.33240735    -0.20100
C687        C  0.38170135  0.29875510  0.32235339     0.20600
C688        C  0.33996753  0.27957519  0.30472581    -0.03000
C689        C  0.32081637  0.30595333  0.29667785    -0.06100
C690        C  0.34337876  0.35136482  0.30638807     0.20800
C691        C  0.27952078  0.28708394  0.27847484     0.19000
C692        C  0.25758656  0.24195983  0.26877457    -0.17600
C693        C  0.27674121  0.21587089  0.27656975    -0.19800
C694        C  0.31810255  0.23447150  0.29425180     0.20500
C695        C  0.33900193  0.20938217  0.30030031    -0.32800
C696        C  0.38167525  0.22905256  0.31636853     0.01200
C697        C  0.40202827  0.27323191  0.32831109    -0.24100
C698        C  0.32460664  0.37756170  0.29779530    -0.28700
C699        C  0.28334895  0.35892481  0.27988956     0.06800
C700        C  0.26091620  0.31367699  0.27031967    -0.27400
H701        H  0.40195468  0.40459580  0.33226010     0.11600
H702        H  0.43548188  0.35892178  0.34592626     0.12700
H703        H  0.22584287  0.22694805  0.25484761     0.11800
H704        H  0.25954361  0.18132911  0.26832829     0.11000
H705        H  0.32325754  0.17540070  0.29093461     0.16400
H706        H  0.43503955  0.28866646  0.34059654     0.12300
H707        H  0.34166373  0.41227711  0.30569288     0.15200
H708        H  0.22890872  0.29914131  0.25674950     0.14900
C709        C  0.22942125  0.34879054  0.47603010    -0.17900
C710        C  0.21288371  0.34785661  0.44354721    -0.20100
C711        C  0.22514149  0.38784393  0.42647082     0.20600
C712        C  0.25468963  0.42916317  0.44230586    -0.03000
C713        C  0.27194489  0.43010519  0.47488357    -0.06100
C714        C  0.25898224  0.38973114  0.49196637     0.20800
C715        C  0.30178651  0.47150069  0.49046225     0.19000
C716        C  0.31422197  0.51148717  0.47342509    -0.17600
C717        C  0.29711666  0.51055578  0.44127741    -0.19800
C718        C  0.26723004  0.46962142  0.42555285     0.20500
C719        C  0.25045371  0.46856772  0.39311075    -0.32800
C720        C  0.22188911  0.42763450  0.37665755     0.01200
C721        C  0.20913199  0.38731863  0.39366636    -0.24100
C722        C  0.27497860  0.39109667  0.52490241    -0.28700
C723        C  0.30408022  0.43237447  0.54084553     0.06800
C724        C  0.31786786  0.47233149  0.52310509    -0.27400
H725        H  0.21903625  0.31742947  0.48870598     0.11600
H726        H  0.19034399  0.31579531  0.43181851     0.12700
H727        H  0.33703244  0.54355735  0.48505210     0.11800
H728        H  0.30730871  0.54193298  0.42868537     0.11000
H729        H  0.26135428  0.49982260  0.38006213     0.16400
H730        H  0.18786230  0.35562017  0.38103026     0.12300
H731        H  0.26359011  0.36012853  0.53849706     0.15200
H732        H  0.33962604  0.50429558  0.53526730     0.14900
loop_ 
_geom_bond_atom_site_label_1 
_geom_bond_atom_site_label_2 
_geom_bond_distance 
_geom_bond_site_symmetry_2 
_ccdc_geom_bond_type 
In1           O3   2.249       .  S
In1           O4   2.231       .  S
In1          O12   2.242       .  S
In1           O6   2.294       .  S
In1           O8   2.273       .  S
In1           O9   2.220       .  S
In1          O10   2.252       .  S
In1          O13   2.253       .  S
C2            O8   1.261       .  A
C2           O10   1.260       .  A
C2          C720   1.488       .  S
O3           C11   1.262       .  A
O4           C11   1.259       .  A
C5           O12   1.257       .  A
C5            O6   1.266       .  A
C5          C672   1.489       .  S
C7            O9   1.264       .  A
C7           O13   1.266       .  A
C7          C648   1.477       .  S
C11         C699   1.473       .  S
In14         O16   2.243       .  S
In14         O17   2.214       .  S
In14         O25   2.233       .  S
In14         O19   2.293       .  S
In14         O21   2.248       .  S
In14         O22   2.210       .  S
In14         O23   2.270       .  S
In14         O26   2.253       .  S
C15          O21   1.260       .  A
C15          O23   1.261       .  A
C15         C723   1.487       .  S
O16          C24   1.263       .  A
O17          C24   1.259       .  A
C18          O25   1.255       .  A
C18          O19   1.264       .  A
C18         C627   1.487       .  S
C20          O22   1.262       .  A
C20          O26   1.266       .  A
C20         C579   1.474       .  S
C24         C603   1.468       .  S
In27         O29   2.249       .  S
In27         O30   2.231       .  S
In27         O38   2.248       .  S
In27         O32   2.319       .  S
In27         O34   2.270       .  S
In27         O35   2.223       .  S
In27         O36   2.268       .  S
In27         O39   2.287       .  S
C28          O34   1.260       .  A
C28          O36   1.263       .  A
C28         C552   1.491       .  S
O29          C37   1.263       .  A
O30          C37   1.261       .  A
C31          O38   1.255       .  A
C31          O32   1.264       .  A
C31         C528   1.498       .  S
C33          O35   1.257       .  A
C33          O39   1.265       .  A
C33         C504   1.479       .  S
C37         C696   1.475       .  S
In40         O42   2.232       .  S
In40         O43   2.237       .  S
In40         O51   2.243       .  S
In40         O45   2.281       .  S
In40         O47   2.296       .  S
In40         O48   2.222       .  S
In40         O49   2.218       .  S
In40         O52   2.242       .  S
C41          O47   1.274   1_554  A
C41          O49   1.260   1_554  A
C41         C555   1.493       .  S
O42          C50   1.262       .  A
O43          C50   1.264       .  A
C44          O51   1.261       .  A
C44          O45   1.270       .  A
C44         C624   1.493       .  S
C46          O48   1.265       .  A
C46          O52   1.266       .  A
C46         C480   1.468       .  S
C50         C456   1.473       .  S
In53         O55   2.219       .  S
In53         O56   2.224   1_556  S
In53         O64   2.214   1_556  S
In53         O58   2.267   1_556  S
In53         O60   2.214       .  S
In53         O61   2.219   1_556  S
In53         O62   2.266       .  S
In53         O65   2.227       .  S
C54          O60   1.261       .  A
C54          O62   1.275       .  A
C54         C411   1.485       .  S
O55          C63   1.264       .  A
O56          C63   1.268   1_554  A
C57          O64   1.261       .  A
C57          O58   1.271       .  A
C57         C387   1.484       .  S
C59          O61   1.266   1_556  A
C59          O65   1.266       .  A
C59         C432   1.465       .  S
C63         C459   1.473       .  S
In66         O68   2.230       .  S
In66         O69   2.244       .  S
In66         O77   2.293       .  S
In66         O71   2.270       .  S
In66         O73   2.253       .  S
In66         O74   2.197       .  S
In66         O75   2.293       .  S
In66         O78   2.276       .  S
C67          O73   1.257       .  A
C67          O75   1.264       .  A
C67         C408   1.493       .  S
O68          C76   1.263       .  A
O69          C76   1.263       .  A
C70          O77   1.264       .  A
C70          O71   1.256       .  A
C70         C531   1.498       .  S
C72          O74   1.259       .  A
C72          O78   1.265       .  A
C72         C576   1.470       .  S
C76         C363   1.474       .  S
In79         O81   2.225       .  S
In79         O82   2.241       .  S
In79         O90   2.231   1_556  S
In79         O84   2.282       .  S
In79         O86   2.291       .  S
In79         O87   2.233       .  S
In79         O88   2.196       .  S
In79         O91   2.238       .  S
C80          O86   1.273       .  A
C80          O88   1.259       .  A
C80         C339   1.485       .  S
O81          C89   1.263       .  A
O82          C89   1.265       .  A
C83          O90   1.262       .  A
C83          O84   1.270   1_554  A
C83         C675   1.492       .  S
C85          O87   1.265       .  A
C85          O91   1.264       .  A
C85         C483   1.472       .  S
C89         C315   1.474       .  S
In92         O94   2.248       .  S
In92         O95   2.212       .  S
In92        O103   2.253       .  S
In92         O97   2.277       .  S
In92         O99   2.258       .  S
In92        O100   2.212       .  S
In92        O101   2.257       .  S
In92        O104   2.275       .  S
C93          O99   1.259       .  A
C93         O101   1.260       .  A
C93         C336   1.483       .  S
O94         C102   1.264       .  A
O95         C102   1.262       .  A
C96         O103   1.257       .  A
C96          O97   1.263       .  A
C96         C291   1.486       .  S
C98         O100   1.258       .  A
C98         O104   1.264       .  A
C98         C264   1.473       .  S
C102        C600   1.470       .  S
In105       O107   2.234       .  S
In105       O108   2.221       .  S
In105       O116   2.244       .  S
In105       O110   2.273       .  S
In105       O112   2.270       .  S
In105       O113   2.206       .  S
In105       O114   2.239       .  S
In105       O117   2.276       .  S
C106        O112   1.264       .  A
C106        O114   1.259       .  A
C106        C243   1.486       .  S
O107        C115   1.263       .  A
O108        C115   1.261       .  A
C109        O116   1.257       .  A
C109        O110   1.264       .  A
C109        C288   1.485       .  S
C111        O113   1.257       .  A
C111        O117   1.265       .  A
C111        C651   1.474       .  S
C115        C219   1.469       .  S
In118       O120   2.230       .  S
In118       O121   2.222       .  S
In118       O129   2.223       .  S
In118       O123   2.278       .  S
In118       O125   2.278       .  S
In118       O126   2.215       .  S
In118       O127   2.215       .  S
In118       O130   2.236       .  S
C119        O125   1.274       .  A
C119        O127   1.260       .  A
C119        C240   1.485   1_556  S
O120        C128   1.264       .  A
O121        C128   1.264       .  A
C122        O129   1.260       .  A
C122        O123   1.270       .  A
C122        C192   1.487       .  S
C124        O126   1.264       .  A
C124        O130   1.265       .  A
C124        C435   1.466       .  S
C128        C312   1.472       .  S
In131       O133   2.247       .  S
In131       O134   2.250       .  S
In131       O142   2.227       .  S
In131       O136   2.277       .  S
In131       O138   2.250       .  S
In131       O139   2.208       .  S
In131       O140   2.213       .  S
In131       O143   2.250       .  S
C132        O138   1.263       .  A
C132        O140   1.261       .  A
C132        C168   1.474       .  S
O133        C141   1.262       .  A
O134        C141   1.258       .  A
C135        O142   1.257       .  A
C135        O136   1.264       .  A
C135        C195   1.482       .  S
C137        O139   1.262       .  A
C137        O143   1.264       .  A
C137        C267   1.473       .  S
C141        C360   1.476       .  S
In144       O146   2.251       .  S
In144       O147   2.219       .  S
In144       O155   2.231       .  S
In144       O149   2.281       .  S
In144       O151   2.248       .  S
In144       O152   2.232       .  S
In144       O153   2.253       .  S
In144       O156   2.252       .  S
C145        O151   1.261       .  A
C145        O153   1.258       .  A
C145        C171   1.480       .  S
O146        C154   1.262       .  A
O147        C154   1.259       .  A
C148        O155   1.257       .  A
C148        O149   1.263       .  A
C148        C384   1.483       .  S
C150        O152   1.263       .  A
C150        O156   1.265       .  A
C150        C507   1.480       .  S
C154        C216   1.470       .  S
C157        C158   1.402       .  A
C157        C162   1.405       .  A
C157        H173   1.083       .  S
C158        C159   1.404       .  A
C158        H174   1.084       .  S
C159        C169   1.407       .  A
C159        C160   1.413       .  A
C160        C166   1.409       .  A
C160        C161   1.412       .  A
C161        C163   1.412       .  A
C161        C162   1.410       .  A
C162        C170   1.406       .  A
C163        C172   1.401       .  A
C163        C164   1.402       .  A
C164        C165   1.396       .  A
C164        H175   1.084       .  S
C165        C166   1.402       .  A
C165        H176   1.083       .  S
C166        C167   1.397       .  A
C167        C168   1.406       .  A
C167        H177   1.084       .  S
C168        C169   1.407       .  A
C169        H178   1.084       .  S
C170        C171   1.410       .  A
C170        H179   1.084       .  S
C171        C172   1.405       .  A
C172        H180   1.084       .  S
C181        C182   1.401       .  A
C181        C186   1.404       .  A
C181        H197   1.083       .  S
C182        C183   1.405       .  A
C182        H198   1.084       .  S
C183        C193   1.404       .  A
C183        C184   1.409       .  A
C184        C190   1.414       .  A
C184        C185   1.415       .  A
C185        C187   1.409       .  A
C185        C186   1.414       .  A
C186        C194   1.408       .  A
C187        C196   1.402       .  A
C187        C188   1.404       .  A
C188        C189   1.400       .  A
C188        H199   1.084       .  S
C189        C190   1.403       .  A
C189        H200   1.083       .  S
C190        C191   1.408       .  A
C191        C192   1.406       .  A
C191        H201   1.084       .  S
C192        C193   1.411       .  A
C193        H202   1.084       .  S
C194        C195   1.406       .  A
C194        H203   1.084       .  S
C195        C196   1.408       .  A
C196        H204   1.084       .  S
C205        C206   1.398       .  A
C205        C210   1.403       .  A
C205        H221   1.083       .  S
C206        C207   1.403       .  A
C206        H222   1.083       .  S
C207        C217   1.402       .  A
C207        C208   1.412       .  A
C208        C214   1.410       .  A
C208        C209   1.408       .  A
C209        C211   1.412       .  A
C209        C210   1.411       .  A
C210        C218   1.400       .  A
C211        C220   1.398       .  A
C211        C212   1.402       .  A
C212        C213   1.396       .  A
C212        H223   1.084       .  S
C213        C214   1.402       .  A
C213        H224   1.084       .  S
C214        C215   1.397       .  A
C215        C216   1.404       .  A
C215        H225   1.084       .  S
C216        C217   1.405       .  A
C217        H226   1.084       .  S
C218        C219   1.404       .  A
C218        H227   1.084       .  S
C219        C220   1.404       .  A
C220        H228   1.085       .  S
C229        C230   1.400       .  A
C229        C234   1.404       .  A
C229        H245   1.083       .  S
C230        C231   1.403       .  A
C230        H246   1.083       .  S
C231        C241   1.409       .  A
C231        C232   1.414       .  A
C232        C238   1.410       .  A
C232        C233   1.416       .  A
C233        C235   1.413       .  A
C233        C234   1.410       .  A
C234        C242   1.405       .  A
C235        C244   1.408       .  A
C235        C236   1.404       .  A
C236        C237   1.401       .  A
C236        H247   1.084       .  S
C237        C238   1.405       .  A
C237        H248   1.084       .  S
C238        C239   1.405       .  A
C239        C240   1.411       .  A
C239        H249   1.085       .  S
C240        C241   1.405       .  A
C241        H250   1.084       .  S
C242        C243   1.409       .  A
C242        H251   1.084       .  S
C243        C244   1.408       .  A
C244        H252   1.084       .  S
C253        C254   1.394       .  A
C253        C258   1.401       .  A
C253        H269   1.083       .  S
C254        C255   1.402       .  A
C254        H270   1.084       .  S
C255        C265   1.394       .  A
C255        C256   1.410       .  A
C256        C262   1.413       .  A
C256        C257   1.409       .  A
C257        C259   1.411       .  A
C257        C258   1.411       .  A
C258        C266   1.394       .  A
C259        C268   1.407       .  A
C259        C260   1.405       .  A
C260        C261   1.402       .  A
C260        H271   1.083       .  S
C261        C262   1.405       .  A
C261        H272   1.083       .  S
C262        C263   1.408       .  A
C263        C264   1.406       .  A
C263        H273   1.083       .  S
C264        C265   1.404       .  A
C265        H274   1.085       .  S
C266        C267   1.403       .  A
C266        H275   1.084       .  S
C267        C268   1.408       .  A
C268        H276   1.084       .  S
C277        C278   1.401       .  A
C277        C282   1.405       .  A
C277        H293   1.083       .  S
C278        C279   1.403       .  A
C278        H294   1.083       .  S
C279        C289   1.407       .  A
C279        C280   1.412       .  A
C280        C286   1.411   1_545  A
C280        C281   1.415       .  A
C281        C283   1.412       .  A
C281        C282   1.411       .  A
C282        C290   1.407       .  A
C283        C292   1.407       .  A
C283        C284   1.404   1_545  A
C284        C285   1.401       .  A
C284        H295   1.083       .  S
C285        C286   1.404       .  A
C285        H296   1.083       .  S
C286        C287   1.406       .  A
C287        C288   1.410       .  A
C287        H297   1.084       .  S
C288        C289   1.406   1_565  A
C289        H298   1.084       .  S
C290        C291   1.410       .  A
C290        H299   1.084       .  S
C291        C292   1.406       .  A
C292        H300   1.084       .  S
C301        C302   1.398       .  A
C301        C306   1.403       .  A
C301        H317   1.084       .  S
C302        C303   1.403   1_545  A
C302        H318   1.083   1_545  S
C303        C313   1.400       .  A
C303        C304   1.410   1_565  A
C304        C310   1.412   1_545  A
C304        C305   1.410       .  A
C305        C307   1.411       .  A
C305        C306   1.412       .  A
C306        C314   1.403       .  A
C307        C316   1.401       .  A
C307        C308   1.403       .  A
C308        C309   1.398       .  A
C308        H319   1.083       .  S
C309        C310   1.403   1_545  A
C309        H320   1.084   1_545  S
C310        C311   1.402       .  A
C311        C312   1.405       .  A
C311        H321   1.085       .  S
C312        C313   1.405       .  A
C313        H322   1.084       .  S
C314        C315   1.406       .  A
C314        H323   1.084       .  S
C315        C316   1.405       .  A
C316        H324   1.084       .  S
C325        C326   1.403       .  A
C325        C330   1.405       .  A
C325        H341   1.083       .  S
C326        C327   1.406       .  A
C326        H342   1.083       .  S
C327        C337   1.407       .  A
C327        C328   1.410       .  A
C328        C334   1.413       .  A
C328        C329   1.415       .  A
C329        C331   1.408       .  A
C329        C330   1.415       .  A
C330        C338   1.413       .  A
C331        C340   1.399       .  A
C331        C332   1.403       .  A
C332        C333   1.397       .  A
C332        H343   1.084       .  S
C333        C334   1.403       .  A
C333        H344   1.083       .  S
C334        C335   1.404       .  A
C335        C336   1.406       .  A
C335        H345   1.084       .  S
C336        C337   1.410       .  A
C337        H346   1.084       .  S
C338        C339   1.408       .  A
C338        H347   1.084       .  S
C339        C340   1.408       .  A
C340        H348   1.084       .  S
C349        C350   1.396       .  A
C349        C354   1.402       .  A
C349        H365   1.083       .  S
C350        C351   1.402       .  A
C350        H366   1.084       .  S
C351        C361   1.398   1_455  A
C351        C352   1.411       .  A
C352        C358   1.411       .  A
C352        C353   1.411       .  A
C353        C355   1.412       .  A
C353        C354   1.411       .  A
C354        C362   1.398       .  A
C355        C364   1.405       .  A
C355        C356   1.404       .  A
C356        C357   1.401       .  A
C356        H367   1.084       .  S
C357        C358   1.405       .  A
C357        H368   1.083       .  S
C358        C359   1.406   1_455  A
C359        C360   1.409       .  A
C359        H369   1.084       .  S
C360        C361   1.402       .  A
C361        H370   1.084       .  S
C362        C363   1.404       .  A
C362        H371   1.084       .  S
C363        C364   1.407       .  A
C364        H372   1.084       .  S
C373        C374   1.399   1_455  A
C373        C378   1.403       .  A
C373        H389   1.083       .  S
C374        C375   1.404   1_655  A
C374        H390   1.083       .  S
C375        C385   1.401   1_455  A
C375        C376   1.409       .  A
C376        C382   1.414       .  A
C376        C377   1.414       .  A
C377        C379   1.409       .  A
C377        C378   1.414       .  A
C378        C386   1.406       .  A
C379        C388   1.404       .  A
C379        C380   1.405       .  A
C380        C381   1.401       .  A
C380        H391   1.084       .  S
C381        C382   1.404       .  A
C381        H392   1.083       .  S
C382        C383   1.409       .  A
C383        C384   1.407   1_455  A
C383        H393   1.084       .  S
C384        C385   1.407       .  A
C385        H394   1.084       .  S
C386        C387   1.405       .  A
C386        H395   1.084       .  S
C387        C388   1.410       .  A
C388        H396   1.084       .  S
C397        C398   1.402       .  A
C397        C402   1.405       .  A
C397        H413   1.084       .  S
C398        C399   1.405       .  A
C398        H414   1.083       .  S
C399        C409   1.411       .  A
C399        C400   1.413       .  A
C400        C406   1.410       .  A
C400        C401   1.417       .  A
C401        C403   1.413       .  A
C401        C402   1.410       .  A
C402        C410   1.405       .  A
C403        C412   1.407       .  A
C403        C404   1.403       .  A
C404        C405   1.400       .  A
C404        H415   1.083       .  S
C405        C406   1.405       .  A
C405        H416   1.083       .  S
C406        C407   1.406       .  A
C407        C408   1.411       .  A
C407        H417   1.084       .  S
C408        C409   1.409       .  A
C409        H418   1.084       .  S
C410        C411   1.411       .  A
C410        H419   1.085       .  S
C411        C412   1.405       .  A
C412        H420   1.084       .  S
C421        C422   1.396       .  A
C421        C426   1.402       .  A
C421        H437   1.084       .  S
C422        C423   1.403       .  A
C422        H438   1.083       .  S
C423        C433   1.398       .  A
C423        C424   1.411       .  A
C424        C430   1.413   1_556  A
C424        C425   1.410       .  A
C425        C427   1.412       .  A
C425        C426   1.413       .  A
C426        C434   1.400       .  A
C427        C436   1.402       .  A
C427        C428   1.404   1_556  A
C428        C429   1.399       .  A
C428        H439   1.083       .  S
C429        C430   1.403       .  A
C429        H440   1.084       .  S
C430        C431   1.403       .  A
C431        C432   1.403   1_554  A
C431        H441   1.085       .  S
C432        C433   1.403       .  A
C433        H442   1.085       .  S
C434        C435   1.401       .  A
C434        H443   1.085       .  S
C435        C436   1.405       .  A
C436        H444   1.084       .  S
C445        C446   1.397       .  A
C445        C450   1.402   1_545  A
C445        H461   1.084   1_545  S
C446        C447   1.403       .  A
C446        H462   1.083       .  S
C447        C457   1.401       .  A
C447        C448   1.411       .  A
C448        C454   1.412       .  A
C448        C449   1.410       .  A
C449        C451   1.411   1_545  A
C449        C450   1.412   1_545  A
C450        C458   1.400       .  A
C451        C460   1.402       .  A
C451        C452   1.404   1_565  A
C452        C453   1.399       .  A
C452        H463   1.083   1_545  S
C453        C454   1.403       .  A
C453        H464   1.083       .  S
C454        C455   1.403       .  A
C455        C456   1.405       .  A
C455        H465   1.084       .  S
C456        C457   1.405       .  A
C457        H466   1.084       .  S
C458        C459   1.404       .  A
C458        H467   1.085       .  S
C459        C460   1.407       .  A
C460        H468   1.084       .  S
C469        C470   1.399       .  A
C469        C474   1.403       .  A
C469        H485   1.084       .  S
C470        C471   1.404   1_554  A
C470        H486   1.083       .  S
C471        C481   1.403       .  A
C471        C472   1.412       .  A
C472        C478   1.413       .  A
C472        C473   1.411       .  A
C473        C475   1.412       .  A
C473        C474   1.413   1_556  A
C474        C482   1.404       .  A
C475        C484   1.402       .  A
C475        C476   1.404       .  A
C476        C477   1.398       .  A
C476        H487   1.083       .  S
C477        C478   1.403       .  A
C477        H488   1.084       .  S
C478        C479   1.403       .  A
C479        C480   1.402       .  A
C479        H489   1.084       .  S
C480        C481   1.405       .  A
C481        H490   1.085       .  S
C482        C483   1.404   1_554  A
C482        H491   1.084       .  S
C483        C484   1.405       .  A
C484        H492   1.084       .  S
C493        C494   1.397       .  A
C493        C498   1.403       .  A
C493        H509   1.083       .  S
C494        C495   1.403       .  A
C494        H510   1.084       .  S
C495        C505   1.398       .  A
C495        C496   1.410       .  A
C496        C502   1.414       .  A
C496        C497   1.413       .  A
C497        C499   1.411       .  A
C497        C498   1.412       .  A
C498        C506   1.402       .  A
C499        C508   1.406       .  A
C499        C500   1.405       .  A
C500        C501   1.402       .  A
C500        H511   1.083       .  S
C501        C502   1.405       .  A
C501        H512   1.083       .  S
C502        C503   1.410       .  A
C503        C504   1.407       .  A
C503        H513   1.084       .  S
C504        C505   1.406       .  A
C505        H514   1.085       .  S
C506        C507   1.406       .  A
C506        H515   1.084       .  S
C507        C508   1.408       .  A
C508        H516   1.084       .  S
C517        C518   1.406       .  A
C517        C522   1.407       .  A
C517        H533   1.083       .  S
C518        C519   1.406   1_565  A
C518        H534   1.084       .  S
C519        C529   1.418       .  A
C519        C520   1.414       .  A
C520        C526   1.409       .  A
C520        C521   1.421       .  A
C521        C523   1.413       .  A
C521        C522   1.410   1_545  A
C522        C530   1.414       .  A
C523        C532   1.409       .  A
C523        C524   1.403       .  A
C524        C525   1.400       .  A
C524        H535   1.083       .  S
C525        C526   1.404       .  A
C525        H536   1.083       .  S
C526        C527   1.405       .  A
C527        C528   1.410       .  A
C527        H537   1.084       .  S
C528        C529   1.412       .  A
C529        H538   1.084       .  S
C530        C531   1.415       .  A
C530        H539   1.084       .  S
C531        C532   1.407   1_565  A
C532        H540   1.084       .  S
C541        C542   1.405       .  A
C541        C546   1.405       .  A
C541        H557   1.083       .  S
C542        C543   1.407       .  A
C542        H558   1.083       .  S
C543        C553   1.412       .  A
C543        C544   1.410       .  A
C544        C550   1.413       .  A
C544        C545   1.418       .  A
C545        C547   1.409       .  A
C545        C546   1.414       .  A
C546        C554   1.415       .  A
C547        C556   1.404       .  A
C547        C548   1.404       .  A
C548        C549   1.399       .  A
C548        H559   1.084       .  S
C549        C550   1.403       .  A
C549        H560   1.084       .  S
C550        C551   1.407       .  A
C551        C552   1.406       .  A
C551        H561   1.084       .  S
C552        C553   1.413       .  A
C553        H562   1.084       .  S
C554        C555   1.409       .  A
C554        H563   1.084       .  S
C555        C556   1.411       .  A
C556        H564   1.084       .  S
C565        C566   1.393       .  A
C565        C570   1.401       .  A
C565        H581   1.084       .  S
C566        C567   1.401       .  A
C566        H582   1.084       .  S
C567        C577   1.392       .  A
C567        C568   1.410       .  A
C568        C574   1.414       .  A
C568        C569   1.410       .  A
C569        C571   1.411       .  A
C569        C570   1.411       .  A
C570        C578   1.395       .  A
C571        C580   1.407       .  A
C571        C572   1.405       .  A
C572        C573   1.403       .  A
C572        H583   1.083       .  S
C573        C574   1.405       .  A
C573        H584   1.083       .  S
C574        C575   1.410       .  A
C575        C576   1.406       .  A
C575        H585   1.084       .  S
C576        C577   1.402       .  A
C577        H586   1.085       .  S
C578        C579   1.404       .  A
C578        H587   1.084       .  S
C579        C580   1.407       .  A
C580        H588   1.083       .  S
C589        C590   1.400       .  A
C589        C594   1.403       .  A
C589        H605   1.084       .  S
C590        C591   1.404       .  A
C590        H606   1.083       .  S
C591        C601   1.404   1_455  A
C591        C592   1.412       .  A
C592        C598   1.410       .  A
C592        C593   1.408       .  A
C593        C595   1.411       .  A
C593        C594   1.412       .  A
C594        C602   1.402       .  A
C595        C604   1.395       .  A
C595        C596   1.402       .  A
C596        C597   1.394       .  A
C596        H607   1.084       .  S
C597        C598   1.402       .  A
C597        H608   1.084       .  S
C598        C599   1.394   1_455  A
C599        C600   1.403       .  A
C599        H609   1.085       .  S
C600        C601   1.406       .  A
C601        H610   1.084       .  S
C602        C603   1.404       .  A
C602        H611   1.084       .  S
C603        C604   1.404       .  A
C604        H612   1.085       .  S
C613        C614   1.403       .  A
C613        C618   1.404       .  A
C613        H629   1.084       .  S
C614        C615   1.406       .  A
C614        H630   1.084       .  S
C615        C625   1.409       .  A
C615        C616   1.410       .  A
C616        C622   1.413       .  A
C616        C617   1.417       .  A
C617        C619   1.409       .  A
C617        C618   1.414       .  A
C618        C626   1.411       .  A
C619        C628   1.403       .  A
C619        C620   1.404       .  A
C620        C621   1.400       .  A
C620        H631   1.084       .  S
C621        C622   1.404       .  A
C621        H632   1.083       .  S
C622        C623   1.409       .  A
C623        C624   1.407       .  A
C623        H633   1.084       .  S
C624        C625   1.413       .  A
C625        H634   1.084       .  S
C626        C627   1.408       .  A
C626        H635   1.084       .  S
C627        C628   1.409       .  A
C628        H636   1.084       .  S
C637        C638   1.395       .  A
C637        C642   1.402       .  A
C637        H653   1.083       .  S
C638        C639   1.402       .  A
C638        H654   1.084       .  S
C639        C649   1.398       .  A
C639        C640   1.412       .  A
C640        C646   1.411       .  A
C640        C641   1.411       .  A
C641        C643   1.413       .  A
C641        C642   1.410       .  A
C642        C650   1.396       .  A
C643        C652   1.408       .  A
C643        C644   1.404       .  A
C644        C645   1.402       .  A
C644        H655   1.083       .  S
C645        C646   1.405       .  A
C645        H656   1.083       .  S
C646        C647   1.407       .  A
C647        C648   1.408       .  A
C647        H657   1.084       .  S
C648        C649   1.404       .  A
C649        H658   1.085       .  S
C650        C651   1.405       .  A
C650        H659   1.084       .  S
C651        C652   1.405       .  A
C652        H660   1.084       .  S
C661        C662   1.401   1_655  A
C661        C666   1.405       .  A
C661        H677   1.083       .  S
C662        C663   1.404       .  A
C662        H678   1.083   1_455  S
C663        C673   1.411       .  A
C663        C664   1.414       .  A
C664        C670   1.410       .  A
C664        C665   1.418       .  A
C665        C667   1.414       .  A
C665        C666   1.409   1_455  A
C666        C674   1.406       .  A
C667        C676   1.412       .  A
C667        C668   1.405       .  A
C668        C669   1.402       .  A
C668        H679   1.083       .  S
C669        C670   1.405       .  A
C669        H680   1.083       .  S
C670        C671   1.407       .  A
C671        C672   1.410       .  A
C671        H681   1.084       .  S
C672        C673   1.407       .  A
C673        H682   1.084       .  S
C674        C675   1.411       .  A
C674        H683   1.084       .  S
C675        C676   1.409   1_655  A
C676        H684   1.084       .  S
C685        C686   1.397       .  A
C685        C690   1.403       .  A
C685        H701   1.084       .  S
C686        C687   1.403       .  A
C686        H702   1.084       .  S
C687        C697   1.400       .  A
C687        C688   1.411       .  A
C688        C694   1.411       .  A
C688        C689   1.410       .  A
C689        C691   1.412       .  A
C689        C690   1.411       .  A
C690        C698   1.400       .  A
C691        C700   1.403       .  A
C691        C692   1.403       .  A
C692        C693   1.399       .  A
C692        H703   1.083       .  S
C693        C694   1.404       .  A
C693        H704   1.083       .  S
C694        C695   1.403       .  A
C695        C696   1.406       .  A
C695        H705   1.083       .  S
C696        C697   1.406       .  A
C697        H706   1.085       .  S
C698        C699   1.405       .  A
C698        H707   1.084       .  S
C699        C700   1.405       .  A
C700        H708   1.084       .  S
C709        C710   1.403       .  A
C709        C714   1.405       .  A
C709        H725   1.083       .  S
C710        C711   1.405       .  A
C710        H726   1.083       .  S
C711        C721   1.411       .  A
C711        C712   1.412       .  A
C712        C718   1.411       .  A
C712        C713   1.416       .  A
C713        C715   1.411       .  A
C713        C714   1.412       .  A
C714        C722   1.410       .  A
C715        C724   1.404       .  A
C715        C716   1.403       .  A
C716        C717   1.399       .  A
C716        H727   1.084       .  S
C717        C718   1.404       .  A
C717        H728   1.084       .  S
C718        C719   1.404       .  A
C719        C720   1.408       .  A
C719        H729   1.084       .  S
C720        C721   1.410       .  A
C721        H730   1.084       .  S
C722        C723   1.410       .  A
C722        H731   1.084       .  S
C723        C724   1.407       .  A
C724        H732   1.084       .  S
