geometry optimzed in LAMMPS
_audit_creation_date              2020-12-01 
_audit_creation_method            'lammps2cif' 
_symmetry_space_group_name_H-M    'P1' 
_symmetry_Int_Tables_number       1 
_symmetry_cell_setting            triclinic 
loop_ 
_symmetry_equiv_pos_as_xyz 
  x,y,z 
_cell_length_a                    50.28410744 
_cell_length_b                    50.279487041302865 
_cell_length_c                    75.1902462749914 
_cell_angle_alpha                 89.70193732944212 
_cell_angle_beta                  89.75398280081316 
_cell_angle_gamma                 119.811295507971 
loop_ 
_atom_site_label 
_atom_site_type_symbol 
_atom_site_fract_x 
_atom_site_fract_y 
_atom_site_fract_z 
_atom_site_charge 
Zn1        Zn  0.45090318  0.08032863  0.59738750     1.49700
Zn2        Zn  0.47778103  0.14108001  0.57457335     1.49400
Zn3        Zn  0.41699888  0.08109195  0.56188096     1.49100
Zn4        Zn  0.41558226  0.11427760  0.59641138     1.49500
O5          O  0.44054951  0.10432921  0.58224139    -1.82800
O6          O  0.49299958  0.09099765  0.59067964    -0.73400
O7          O  0.48340303  0.13962901  0.54828047    -0.73200
O8          O  0.40554488  0.03725223  0.56580139    -0.72800
O9          O  0.01572226  0.14066166  0.58350018    -0.73400
O10         O  0.42362422  0.03577355  0.59249907    -0.73000
O11         O  0.44287595  0.09719233  0.53877927    -0.73600
O12         O  0.37187020  0.08813317  0.59000327    -0.73000
O13         O  0.47434871  0.17924290  0.57914537    -0.73800
O14         O  0.37509060  0.07843139  0.56145738    -0.73200
O15         O  0.42708914  0.15677860  0.59052359    -0.73600
O16         O  0.42087653  0.11114649  0.62272680    -0.73500
O17         O  0.44906195  0.08846847  0.62341898    -0.73300
C18         C  0.01652945  0.11589533  0.58587449     0.78500
C19         C  0.46916809  0.12086887  0.53587610     0.79000
C20         C  0.40829172  0.02234139  0.57872205     0.77900
C21         C  0.35939591  0.07792020  0.57502166     0.78300
C22         C  0.45071834  0.18033761  0.58442480     0.79400
C23         C  0.43535201  0.10056973  0.63135050     0.78500
Zn24       Zn  0.07946646  0.19699272  0.40381644     1.49700
Zn25       Zn  0.01901777  0.16425451  0.42754506     1.49400
Zn26       Zn  0.04001695  0.12680046  0.40422135     1.49100
Zn27       Zn  0.08033770  0.16230700  0.43816136     1.49500
O28         O  0.05468676  0.16252484  0.41874624    -1.82800
O29         O  0.06945154  0.22945013  0.40969370    -0.73400
O30         O  0.47838254  0.12661432  0.42020086    -0.73200
O31         O  0.04086508  0.13640806  0.37791006    -0.72800
O32         O  0.02432722  0.20690251  0.42377411    -0.73400
O33         O  0.07220374  0.18681254  0.37774252    -0.73000
O34         O  0.99760637  0.09691348  0.41218146    -0.73600
O35         O  0.09283542  0.13042859  0.43231002    -0.73000
O36         O  0.01627201  0.15782991  0.45364884    -0.73800
O37         O  0.06664994  0.10815180  0.40795263    -0.73200
O38         O  0.05494698  0.15143052  0.46198035    -0.73600
O39         O  0.12211147  0.20304169  0.43798241    -0.73500
O40         O  0.12415096  0.21476038  0.40919880    -0.73300
C41         C  0.04750748  0.23078166  0.41731669     0.78500
C42         C  0.47532965  0.10013654  0.41750890     0.79000
C43         C  0.05615779  0.16173372  0.36952775     0.77900
C44         C  0.08650678  0.11161062  0.41953400     0.78300
C45         C  0.02970003  0.15098336  0.46555776     0.79400
C46         C  0.13716999  0.21824943  0.42416616     0.78500
Zn47       Zn  0.11515868  0.42117060  0.43988035     1.49700
Zn48       Zn  0.07478093  0.40888074  0.40527244     1.49400
Zn49       Zn  0.08215758  0.45754830  0.43176266     1.49100
Zn50       Zn  0.13837773  0.47163042  0.40745246     1.49500
O51         O  0.10351073  0.43970206  0.42082709    -1.82800
O52         O  0.09105400  0.37369742  0.43820229    -0.73400
O53         O  0.03192774  0.40053035  0.40867444    -0.73200
O54         O  0.09800418  0.47104517  0.45617724    -0.72800
O55         O  0.07224680  0.36975001  0.41107170    -0.73400
O56         O  0.11697479  0.44150805  0.46406984    -0.73000
O57         O  0.03652287  0.43009707  0.43126092    -0.73600
O58         O  0.14054822  0.01346266  0.41160804    -0.73000
O59         O  0.08715231  0.41912614  0.37981418    -0.73800
O60         O  0.09240108  0.99618815  0.42080436    -0.73200
O61         O  0.13105603  0.46321057  0.38071073    -0.73600
O62         O  0.17678571  0.46879129  0.41392664    -0.73500
O63         O  0.15815666  0.43180939  0.43469343    -0.73300
C64         C  0.07782002  0.35777807  0.42439679     0.78500
C65         C  0.01968882  0.40922635  0.42036356     0.79000
C66         C  0.11153087  0.46326939  0.46753950     0.77900
C67         C  0.11823398  0.01785454  0.41559761     0.78300
C68         C  0.10970892  0.44141555  0.37192326     0.79400
C69         C  0.17972666  0.45032567  0.42446610     0.78500
Zn70       Zn  0.13418444  0.05135837  0.59342925     1.49700
Zn71       Zn  0.16770962  0.08773918  0.55805297     1.49400
Zn72       Zn  0.20471446  0.08689741  0.59263699     1.49100
Zn73       Zn  0.16860326  0.02621600  0.57058395     1.49500
O74         O  0.16903800  0.06337202  0.57829868    -1.95400
O75         O  0.11409472  0.07572007  0.58815206    -0.73400
O76         O  0.20502752  0.13149777  0.55916988    -0.73200
O77         O  0.19522220  0.08143125  0.61920076    -0.72800
O78         O  0.13170195  0.09528392  0.56120125    -0.73400
O79         O  0.14440238  0.05636389  0.61916578    -0.73000
O80         O  0.22313405  0.13113218  0.58606937    -0.73600
O81         O  0.21017967  0.02949000  0.57349542    -0.73000
O82         O  0.16169294  0.06378873  0.53443252    -0.73800
O83         O  0.23608233  0.07498958  0.58659889    -0.73200
O84         O  0.16051512  0.02169023  0.54475188    -0.73600
O85         O  0.13222023  0.48721336  0.57964964    -0.73500
O86         O  0.10423344  0.00765459  0.58954776    -0.73300
C87         C  0.11421176  0.09081563  0.57455441     0.78500
C88         C  0.22267316  0.14562062  0.57223224     0.79000
C89         C  0.16960282  0.06895904  0.62747936     0.77900
C90         C  0.23509820  0.05186286  0.57915023     0.78300
C91         C  0.15813818  0.03696433  0.53198097     0.79400
C92         C  0.10663833  0.48386034  0.58502573     0.78500
Zn93       Zn  0.29775853  0.38328536  0.40391880     1.49700
Zn94       Zn  0.36649952  0.42011780  0.40564054     1.49400
Zn95       Zn  0.32983171  0.41585265  0.44035581     1.49100
Zn96       Zn  0.33081480  0.35615796  0.42513322     1.49500
O97         O  0.33110703  0.39382685  0.41932136    -1.82800
O98         O  0.30975263  0.38587638  0.37762858    -0.73400
O99         O  0.38233211  0.46400780  0.41136921    -0.73200
O100        O  0.28903926  0.41696908  0.43888071    -0.72800
O101        O  0.36026433  0.41485445  0.37948715    -0.73400
O102        O  0.28247397  0.41179151  0.40945867    -0.73000
O103        O  0.36261617  0.46131976  0.43828444    -0.73600
O104        O  0.33995851  0.35699105  0.45080944    -0.73000
O105        O  0.39715004  0.40873898  0.41208322    -0.73800
O106        O  0.33980047  0.39701101  0.46291084    -0.73200
O107        O  0.36923358  0.35770545  0.41463047    -0.73600
O108        O  0.28756677  0.31806732  0.42204555    -0.73500
O109        O  0.26359568  0.34119417  0.41051378    -0.73300
C110        C  0.33621214  0.40021923  0.37028836     0.78500
C111        C  0.38003323  0.47685271  0.42533228     0.79000
C112        C  0.27607175  0.41873757  0.42454269     0.77900
C113        C  0.34424516  0.37395280  0.46415751     0.78300
C114        C  0.39508408  0.38267863  0.41415161     0.79400
C115        C  0.26286049  0.31770457  0.41749637     0.78500
Zn116      Zn  0.42294783  0.37329815  0.56399658     1.49700
Zn117      Zn  0.38662646  0.30358965  0.55883452     1.49400
Zn118      Zn  0.42572469  0.33227272  0.59334423     1.49100
Zn119      Zn  0.36438876  0.33435345  0.58910780     1.49500
O120        O  0.39917553  0.33542454  0.57655596    -1.82800
O121        O  0.40786953  0.36943948  0.53890406    -0.73400
O122        O  0.41089223  0.28084697  0.56132818    -0.73200
O123        O  0.46872280  0.36628933  0.59118828    -0.72800
O124        O  0.38333221  0.31931140  0.53406987    -0.73400
O125        O  0.46906849  0.39108062  0.56660230    -0.73000
O126        O  0.42770810  0.29511625  0.58892038    -0.73600
O127        O  0.37046573  0.33536541  0.61628200    -0.73000
O128        O  0.34368866  0.27241206  0.56446805    -0.73800
O129        O  0.41204391  0.33145193  0.61818006    -0.73200
O130        O  0.32495078  0.29394207  0.58273554    -0.73600
O131        O  0.36365470  0.37371937  0.58255222    -0.73500
O132        O  0.41232857  0.40301789  0.57373838    -0.73300
C133        C  0.39119272  0.34661193  0.52914062     0.78500
C134        C  0.42303400  0.27796669  0.57561812     0.79000
C135        C  0.48305519  0.38700789  0.57954164     0.77900
C136        C  0.39069706  0.33377000  0.62573146     0.78300
C137        C  0.32151265  0.27131931  0.57325907     0.79400
C138        C  0.38636053  0.39974634  0.57797292     0.78500
Zn139      Zn  0.03896299  0.24221703  0.06931761     1.49700
Zn140      Zn  0.46940230  0.21097760  0.07025961     1.49400
Zn141      Zn  0.00258033  0.18333188  0.09346670     1.49100
Zn142      Zn  0.00529505  0.24702120  0.10422643     1.49500
O143        O  0.00411895  0.22085813  0.08469209    -1.82800
O144        O  0.02859929  0.23629160  0.04364499    -0.73400
O145        O  0.43903291  0.16821050  0.07528771    -0.73200
O146        O  0.03964773  0.18052458  0.08517296    -0.72800
O147        O  0.47806933  0.21558092  0.04388331    -0.73400
O148        O  0.06823991  0.22767094  0.07404691    -0.73000
O149        O  0.46097231  0.14513312  0.08885905    -0.73600
O150        O  0.01477281  0.23199497  0.12770905    -0.73000
O151        O  0.44913031  0.23456932  0.07739487    -0.73800
O152        O  0.00942685  0.18706275  0.11966776    -0.73200
O153        O  0.46585869  0.24959425  0.10495133    -0.73600
O154        O  0.03904209  0.29036799  0.09929211    -0.73500
O155        O  0.05969001  0.28689878  0.07373626    -0.73300
C156        C  0.50338087  0.22616439  0.03550724     0.78500
C157        C  0.43734313  0.14425515  0.08203608     0.79000
C158        C  0.06527979  0.20241803  0.07959942     0.77900
C159        C  0.01554107  0.20747683  0.13135408     0.78300
C160        C  0.44760308  0.24584394  0.09220348     0.79400
C161        C  0.05794015  0.30252771  0.08642026     0.78500
Zn162      Zn  0.09131744  0.20715809  0.23207526     1.49700
Zn163      Zn  0.03417615  0.16180753  0.25545854     1.49400
Zn164      Zn  0.06245550  0.13857435  0.22378091     1.49100
Zn165      Zn  0.09868639  0.16487545  0.25927535     1.49500
O166        O  0.07100637  0.16746308  0.24289799    -1.82800
O167        O  0.07697421  0.23305594  0.24351803    -0.73400
O168        O  0.49762689  0.11965132  0.24857515    -0.73200
O169        O  0.06013664  0.15646388  0.19961324    -0.72800
O170        O  0.02852847  0.19913846  0.25075550    -0.73400
O171        O  0.07705000  0.20474641  0.20706968    -0.73000
O172        O  0.02027455  0.10527910  0.22824445    -0.73600
O173        O  0.10490819  0.13010905  0.25311623    -0.73000
O174        O  0.04045885  0.16159730  0.28234843    -0.73800
O175        O  0.08817290  0.11683015  0.22559781    -0.73200
O176        O  0.08382373  0.16059778  0.28446473    -0.73600
O177        O  0.14006476  0.20181403  0.25763518    -0.73500
O178        O  0.13738765  0.22778230  0.23430198    -0.73300
C179        C  0.04997909  0.22669115  0.24786792     0.78500
C180        C  0.49729096  0.09964596  0.23794895     0.79000
C181        C  0.06446360  0.18317444  0.19589193     0.77900
C182        C  0.10109772  0.11375923  0.23950168     0.78300
C183        C  0.06112664  0.16088634  0.29181259     0.79400
C184        C  0.15261006  0.22377358  0.24649488     0.78500
Zn185      Zn  0.31035796  0.38489533  0.25999406     1.49700
Zn186      Zn  0.34140597  0.41725919  0.22360789     1.49400
Zn187      Zn  0.37962754  0.41640425  0.25788376     1.49100
Zn188      Zn  0.34048440  0.35526604  0.23663791     1.49500
O189        O  0.34329931  0.39364942  0.24406817    -1.82800
O190        O  0.29213995  0.41121024  0.25520157    -0.73400
O191        O  0.38012566  0.45983558  0.22353511    -0.73200
O192        O  0.37227642  0.41287987  0.28475539    -0.72800
O193        O  0.30621844  0.42591286  0.22713119    -0.73400
O194        O  0.32149034  0.38843586  0.28563485    -0.73000
O195        O  0.39874455  0.45988994  0.25049970    -0.73600
O196        O  0.38199844  0.35708010  0.23873087    -0.73000
O197        O  0.33353321  0.39240081  0.20025328    -0.73800
O198        O  0.40964731  0.40298059  0.25114560    -0.73200
O199        O  0.33083438  0.34982666  0.21084406    -0.73600
O200        O  0.30283151  0.31824364  0.24739085    -0.73500
O201        O  0.27819019  0.34253858  0.25597972    -0.73300
C202        C  0.29051020  0.42393865  0.24094896     0.78500
C203        C  0.39891815  0.47357967  0.23618022     0.79000
C204        C  0.34711779  0.40061381  0.29348628     0.77900
C205        C  0.40765325  0.37938108  0.24371858     0.78300
C206        C  0.32873535  0.36511121  0.19796192     0.79400
C207        C  0.27828188  0.31803360  0.25213982     0.78500
Zn208      Zn  0.24960982  0.28042851  0.09795857     1.49700
Zn209      Zn  0.28083823  0.24413119  0.10818550     1.49400
Zn210      Zn  0.24600031  0.22983654  0.07273784     1.49100
Zn211      Zn  0.30771706  0.29351675  0.07610946     1.49500
O212        O  0.27157076  0.26209327  0.08842490    -1.82800
O213        O  0.26526103  0.29653177  0.12250423    -0.73400
O214        O  0.25202051  0.19743499  0.10863877    -0.73200
O215        O  0.20277505  0.22039200  0.07537674    -0.72800
O216        O  0.28432925  0.26746422  0.13108347    -0.73400
O217        O  0.20385938  0.25201895  0.09631590    -0.73000
O218        O  0.24527643  0.19078196  0.07952164    -0.73600
O219        O  0.30178821  0.28661747  0.04940446    -0.73000
O220        O  0.32263187  0.25088046  0.10331886    -0.73800
O221        O  0.25820103  0.24277076  0.04728743    -0.73200
O222        O  0.34477254  0.28889291  0.08336307    -0.73600
O223        O  0.31052329  0.33549331  0.08006558    -0.73500
O224        O  0.26042489  0.31774125  0.08390733    -0.73300
C225        C  0.27940043  0.28966106  0.13401656     0.78500
C226        C  0.24332472  0.17976556  0.09510918     0.79000
C227        C  0.18918032  0.23015432  0.08544462     0.77900
C228        C  0.28065683  0.26605812  0.03993465     0.78300
C229        C  0.34548947  0.26880369  0.09360827     0.79400
C230        C  0.28733074  0.33960008  0.08064890     0.78500
Zn231      Zn  0.21710538  0.45176067  0.09538342     1.49700
Zn232      Zn  0.19724553  0.99282262  0.07583120     1.49400
Zn233      Zn  0.24985026  0.01845734  0.10537171     1.49100
Zn234      Zn  0.26147839  0.99500703  0.06851839     1.49500
O235        O  0.23218821  0.99122040  0.08584763    -1.82800
O236        O  0.18291908  0.42578881  0.07985642    -0.73400
O237        O  0.19775382  0.03171342  0.08532361    -0.73200
O238        O  0.22895132  0.99688365  0.12875565    -0.72800
O239        O  0.15828212  0.45171557  0.08243027    -0.73400
O240        O  0.20011134  0.44926241  0.11998741    -0.73000
O241        O  0.23927478  0.05143494  0.10219731    -0.73600
O242        O  0.30047701  0.03160611  0.07482517    -0.73000
O243        O  0.20266318  0.99696193  0.04865325    -0.73800
O244        O  0.29656511  0.03972271  0.10371671    -0.73200
O245        O  0.24784380  0.99969045  0.04429368    -0.73600
O246        O  0.27005588  0.45976865  0.06898952    -0.73500
O247        O  0.24713133  0.43636619  0.09418254    -0.73300
C248        C  0.15813003  0.42617404  0.08200034     0.78500
C249        C  0.21770398  0.05362699  0.09481650     0.79000
C250        C  0.20779816  0.46966164  0.13186079     0.77900
C251        C  0.31214346  0.04549994  0.08928967     0.78300
C252        C  0.22424956  0.99986696  0.03831067     0.79400
C253        C  0.26459391  0.43975757  0.08102385     0.78500
Zn254      Zn  0.08923828  0.40788059  0.22608978     1.49700
Zn255      Zn  0.08945130  0.44664550  0.25882190     1.49400
Zn256      Zn  0.12448413  0.41129831  0.26151075     1.49100
Zn257      Zn  0.15040883  0.47013897  0.23710209     1.49500
O258        O  0.11340315  0.43405390  0.24558585    -1.82800
O259        O  0.04791230  0.40670755  0.22475224    -0.73400
O260        O  0.09595453  0.44567058  0.28524661    -0.73200
O261        O  0.09585784  0.36587839  0.25867011    -0.72800
O262        O  0.04539743  0.41968117  0.25278059    -0.73400
O263        O  0.07530227  0.36360630  0.23240744    -0.73000
O264        O  0.12378892  0.42266671  0.28719782    -0.73600
O265        O  0.18867478  0.47049550  0.24655987    -0.73000
O266        O  0.10126936  0.48942590  0.25182748    -0.73800
O267        O  0.16657046  0.42118804  0.25454729    -0.73200
O268        O  0.14690934  0.00899873  0.23911566    -0.73600
O269        O  0.15514733  0.46520535  0.21135945    -0.73500
O270        O  0.11581919  0.42080544  0.20299027    -0.73300
C271        C  0.03253772  0.40765923  0.23811853     0.78500
C272        C  0.11045325  0.43576230  0.29448560     0.79000
C273        C  0.07812518  0.35020903  0.24610740     0.77900
C274        C  0.18997315  0.44609688  0.24954189     0.78300
C275        C  0.12421650  0.01158673  0.24462182     0.79400
C276        C  0.14184718  0.44467093  0.19968811     0.78500
Zn277      Zn  0.41329276  0.37538233  0.73769839     1.49700
Zn278      Zn  0.41952938  0.33978619  0.77135529     1.49400
Zn279      Zn  0.35624915  0.33952960  0.76254199     1.49100
Zn280      Zn  0.37834618  0.30458492  0.73774746     1.49500
O281        O  0.39207582  0.33978800  0.75265400    -1.82800
O282        O  0.45798028  0.39327339  0.74160168    -0.73400
O283        O  0.39806465  0.33251185  0.79638627    -0.73200
O284        O  0.35969556  0.38153251  0.76093804    -0.72800
O285        O  0.46245230  0.37798268  0.76847508    -0.73400
O286        O  0.40299432  0.40722643  0.74526340    -0.73000
O287        O  0.35522147  0.33157964  0.78814013    -0.73600
O288        O  0.33526472  0.27451552  0.74372591    -0.73000
O289        O  0.42947982  0.30596149  0.76632849    -0.73800
O290        O  0.31620625  0.30268273  0.75475909    -0.73200
O291        O  0.40374490  0.28479638  0.74175997    -0.73600
O292        O  0.38021198  0.31497831  0.71176128    -0.73500
O293        O  0.40445186  0.36591516  0.71145985    -0.73300
C294        C  0.47475605  0.39420625  0.75445997     0.78500
C295        C  0.37159287  0.32915966  0.80009134     0.79000
C296        C  0.38133056  0.40646673  0.75444379     0.77900
C297        C  0.31289574  0.27709857  0.74952889     0.78300
C298        C  0.42283378  0.28714538  0.75355953     0.79400
C299        C  0.39137047  0.34035642  0.70339330     0.78500
Zn300      Zn  0.25937051  0.29348759  0.89424575     1.49700
Zn301      Zn  0.24253801  0.25074695  0.92853700     1.49400
Zn302      Zn  0.29456042  0.25833245  0.90259809     1.49100
Zn303      Zn  0.30565280  0.31289060  0.92771141     1.49500
O304        O  0.27544972  0.27932075  0.91330982    -1.82800
O305        O  0.21208133  0.27022975  0.89510951    -0.73400
O306        O  0.23581189  0.20848762  0.92602259    -0.73200
O307        O  0.30664331  0.27182343  0.87736861    -0.72800
O308        O  0.20330633  0.24798823  0.92168557    -0.73400
O309        O  0.27985220  0.29418802  0.87024841    -0.73000
O310        O  0.26893496  0.21232316  0.90508081    -0.73600
O311        O  0.34844084  0.31949797  0.92249126    -0.73000
O312        O  0.25116265  0.26078782  0.95433277    -0.73800
O313        O  0.33475716  0.27207468  0.91375013    -0.73200
O314        O  0.29781118  0.30115095  0.95407494    -0.73600
O315        O  0.30188920  0.35107176  0.92291960    -0.73500
O316        O  0.27112420  0.33713267  0.89933251    -0.73300
C317        C  0.19365308  0.25512944  0.90789110     0.78500
C318        C  0.24712926  0.19643701  0.91594490     0.79000
C319        C  0.29985881  0.28650080  0.86619926     0.77900
C320        C  0.35497012  0.29868059  0.91864267     0.78300
C321        C  0.27494706  0.28005629  0.96259078     0.79400
C322        C  0.28702470  0.35664441  0.91110690     0.78500
Zn323      Zn  0.20052522  0.09097169  0.73855075     1.49700
Zn324      Zn  0.13159476  0.05834645  0.73982388     1.49400
Zn325      Zn  0.16654236  0.03192847  0.76328956     1.49100
Zn326      Zn  0.16879357  0.09492275  0.77397519     1.49500
O327        O  0.16653463  0.06859742  0.75429581    -1.82800
O328        O  0.19118462  0.08261480  0.71285810    -0.73400
O329        O  0.10111731  0.01458169  0.74454911    -0.73200
O330        O  0.20725810  0.03367262  0.75709802    -0.72800
O331        O  0.14080765  0.06229797  0.71321365    -0.73400
O332        O  0.23121064  0.08004177  0.74462181    -0.73000
O333        O  0.12617807  0.49300909  0.75713939    -0.73600
O334        O  0.17892673  0.08001009  0.79741679    -0.73000
O335        O  0.11335592  0.08429628  0.74695099    -0.73800
O336        O  0.16983006  0.03341284  0.78998137    -0.73200
O337        O  0.12981917  0.09793339  0.77475517    -0.73600
O338        O  0.20135925  0.13897056  0.76869917    -0.73500
O339        O  0.21932516  0.13574278  0.74236951    -0.73300
C340        C  0.16591490  0.07163988  0.70470744     0.78500
C341        C  0.10165204  0.49109211  0.75083768     0.79000
C342        C  0.23180630  0.05760959  0.75195973     0.77900
C343        C  0.17765196  0.05458225  0.80139864     0.78300
C344        C  0.11294525  0.09649486  0.76169689     0.79400
C345        C  0.21835923  0.15173100  0.75512238     0.78500
Zn346      Zn  0.26307569  0.01055655  0.92878778     1.49700
Zn347      Zn  0.25350062  0.04886376  0.90127338     1.49400
Zn348      Zn  0.22629351  0.48383006  0.89319516     1.49100
Zn349      Zn  0.19792235  0.00643678  0.92478469     1.49500
O350        O  0.23393959  0.01076436  0.91254670    -1.82800
O351        O  0.30470338  0.04838586  0.92586593    -0.73400
O352        O  0.23607063  0.04854820  0.87747435    -0.73200
O353        O  0.25261631  0.46306533  0.89529258    -0.72800
O354        O  0.29806626  0.06449672  0.89974034    -0.73400
O355        O  0.26797755  0.47440331  0.92346193    -0.73000
O356        O  0.22214718  0.50138684  0.86904123    -0.73600
O357        O  0.16182995  0.46490584  0.91778537    -0.73000
O358        O  0.24557581  0.07660813  0.91541489    -0.73800
O359        O  0.18476608  0.45074694  0.89764296    -0.73200
O360        O  0.19543603  0.04563373  0.92000438    -0.73600
O361        O  0.20338188  0.50520510  0.95189774    -0.73500
O362        O  0.24889214  0.50828688  0.95431889    -0.73300
C363        C  0.31545120  0.06614390  0.91240151     0.78500
C364        C  0.22451316  0.02770149  0.86585315     0.79000
C365        C  0.26430254  0.45885095  0.90943111     0.77900
C366        C  0.16162507  0.44492135  0.90718306     0.78300
C367        C  0.21902259  0.07247617  0.91877656     0.79400
C368        C  0.22498577  0.50655392  0.96139193     0.78500
Zn369      Zn  0.03123792  0.25739862  0.89121607     1.49700
Zn370      Zn  0.01029193  0.27442334  0.92698865     1.49400
Zn371      Zn  0.46403166  0.22771012  0.90231922     1.49100
Zn372      Zn  0.00446914  0.20830440  0.92208350     1.49500
O373        O  0.00382313  0.24285185  0.91090580    -1.82800
O374        O  0.05199286  0.30368605  0.89047428    -0.73400
O375        O  0.47735448  0.28580991  0.92628640    -0.73200
O376        O  0.46113105  0.21014026  0.87791731    -0.72800
O377        O  0.04810064  0.31195331  0.91940375    -0.73400
O378        O  0.00984472  0.23306266  0.86908283    -0.73000
O379        O  0.44887580  0.25787980  0.90386169    -0.73600
O380        O  0.46471151  0.16904599  0.91524888    -0.73000
O381        O  0.01142038  0.26064470  0.95171751    -0.73800
O382        O  0.43839493  0.19318910  0.91828917    -0.73200
O383        O  0.00443034  0.21359627  0.94876205    -0.73600
O384        O  0.04480458  0.20966603  0.91548406    -0.73500
O385        O  0.06476219  0.24853421  0.89613402    -0.73300
C386        C  0.05982701  0.32128989  0.90399755     0.78500
C387        C  0.45529271  0.27832210  0.91561338     0.79000
C388        C  0.48155815  0.21377646  0.86658408     0.77900
C389        C  0.43905501  0.16857113  0.91598435     0.78300
C390        C  0.00782445  0.23578468  0.95849718     0.79400
C391        C  0.06706767  0.22887848  0.90569038     0.78500
Zn392      Zn  0.45242507  0.09027508  0.74390160     1.49700
Zn393      Zn  0.47447791  0.15043349  0.76605123     1.49400
Zn394      Zn  0.41656316  0.12482633  0.74131328     1.49100
Zn395      Zn  0.41193724  0.08794912  0.77710114     1.49500
O396        O  0.43874423  0.11342029  0.75744048    -1.82800
O397        O  0.99470501  0.10187873  0.75114842    -0.73400
O398        O  0.47621895  0.18930559  0.75651269    -0.73200
O399        O  0.42275443  0.11812231  0.71580152    -0.72800
O400        O  0.01367075  0.14785052  0.76363317    -0.73400
O401        O  0.45112230  0.09569368  0.71736322    -0.73000
O402        O  0.42982478  0.16883175  0.74450037    -0.73600
O403        O  0.36873614  0.07936685  0.77294184    -0.73000
O404        O  0.46865516  0.15367268  0.79193172    -0.73800
O405        O  0.37204673  0.10119680  0.74656603    -0.73200
O406        O  0.42638971  0.11133308  0.80084596    -0.73600
O407        O  0.40673520  0.04478585  0.77658622    -0.73500
O408        O  0.42586517  0.04609033  0.74961922    -0.73300
C409        C  0.01647687  0.12518357  0.75851848     0.78500
C410        C  0.45415490  0.19190781  0.75006767     0.79000
C411        C  0.43722021  0.10644620  0.70832445     0.77900
C412        C  0.35651100  0.08521536  0.75983070     0.78300
C413        C  0.44927209  0.13789255  0.80394427     0.79400
C414        C  0.41045826  0.03123839  0.76324688     0.78500
C415        C  0.47222242  0.19329710  0.85083626    -0.04000
C416        C  0.98621057  0.17533107  0.84751462    -0.01100
C417        C  0.47751721  0.15575187  0.83266672     0.03900
C418        C  0.45360347  0.15257487  0.82156845    -0.04000
C419        C  0.43827701  0.16899792  0.82552856    -0.01100
C420        C  0.44786399  0.18966399  0.83991045     0.03900
C421        C  0.00864777  0.17590212  0.85980374     0.38500
C422        C  0.41351420  0.16572746  0.81427535     0.38500
C423        C  0.43368328  0.20832667  0.84288687     0.36900
C424        C  0.99358747  0.13923752  0.82859123     0.36900
N425        N  0.42253735  0.22338995  0.84516637    -0.37900
N426        N  0.00652696  0.12618792  0.82532555    -0.37900
N427        N  0.39369836  0.16320045  0.80537506    -0.37300
N428        N  0.02615385  0.17590977  0.86974458    -0.37300
C429        C  0.13477047  0.41336502  0.90591501    -0.04000
C430        C  0.13972339  0.38847364  0.90181928    -0.01100
C431        C  0.11479210  0.35876876  0.89970537     0.03900
C432        C  0.08479217  0.35317007  0.90241486    -0.04000
C433        C  0.07951442  0.37749464  0.90655282    -0.01100
C434        C  0.10439384  0.40757714  0.90825817     0.03900
C435        C  0.17041233  0.39251012  0.90076903     0.38500
C436        C  0.04831267  0.37142748  0.90890721     0.38500
C437        C  0.09847987  0.43228724  0.91245559     0.36900
C438        C  0.12017384  0.33354275  0.89567748     0.36900
N439        N  0.09364632  0.45189318  0.91593213    -0.37900
N440        N  0.12463412  0.31360051  0.89246079    -0.37900
N441        N  0.02337044  0.36644141  0.91069649    -0.37300
N442        N  0.19466868  0.39532806  0.89987991    -0.37300
C443        C  0.34823334  0.09066495  0.91175781    -0.04000
C444        C  0.35626101  0.11874895  0.90303905    -0.01100
C445        C  0.38659528  0.14289843  0.90318566     0.03900
C446        C  0.40920669  0.14036991  0.91305123    -0.04000
C447        C  0.40177556  0.11207505  0.92111505    -0.01100
C448        C  0.37139956  0.08718388  0.92038011     0.03900
C449        C  0.33316326  0.12417617  0.89484967     0.38500
C450        C  0.42494147  0.10880841  0.93072823     0.38500
C451        C  0.36413783  0.05818806  0.92865498     0.36900
C452        C  0.39397997  0.17068819  0.89325596     0.36900
N453        N  0.35836976  0.03509998  0.93530788    -0.37900
N454        N  0.39884705  0.19250275  0.88537438    -0.37900
N455        N  0.44337363  0.10605702  0.93836965    -0.37300
N456        N  0.31494050  0.12874469  0.88839140    -0.37300
C457        C  0.09180477  0.10891993  0.76341449    -0.04000
C458        C  0.06769481  0.09620119  0.77600477    -0.01100
C459        C  0.04390714  0.10328218  0.77508718     0.03900
C460        C  0.04476426  0.12405600  0.76205485    -0.04000
C461        C  0.07034698  0.13909847  0.75062416    -0.01100
C462        C  0.09363172  0.13118473  0.75109178     0.03900
C463        C  0.06619191  0.07419567  0.78909927     0.38500
C464        C  0.07187015  0.16148362  0.73781100     0.38500
C465        C  0.11908519  0.14535566  0.73858337     0.36900
C466        C  0.01753041  0.08779203  0.78688437     0.36900
N467        N  0.13934506  0.15656026  0.72857615    -0.37900
N468        N  0.99631627  0.07527307  0.79613345    -0.37900
N469        N  0.07314939  0.17946978  0.72765624    -0.37300
N470        N  0.06501865  0.05669539  0.79957810    -0.37300
C471        C  0.32379985  0.07578425  0.76039571    -0.04000
C472        C  0.31581453  0.09836605  0.76379705    -0.01100
C473        C  0.28534367  0.09146810  0.76209973     0.03900
C474        C  0.26263714  0.06216581  0.75601676    -0.04000
C475        C  0.27046110  0.03912190  0.75323304    -0.01100
C476        C  0.30108189  0.04588812  0.75566621     0.03900
C477        C  0.33932429  0.12934364  0.76828351     0.38500
C478        C  0.24748891  0.50812252  0.74853900     0.38500
C479        C  0.30952826  0.02260336  0.75259448     0.36900
C480        C  0.27780475  0.11517049  0.76633169     0.36900
N481        N  0.31602118  0.50280393  0.75226327    -0.37900
N482        N  0.27206917  0.13428832  0.76944573    -0.37900
N483        N  0.22913687  0.48390310  0.74402045    -0.37300
N484        N  0.35793794  0.15416606  0.77157874    -0.37300
C485        C  0.21258655  0.03427077  0.84914626    -0.04000
C486        C  0.23043819  0.06216403  0.83974202    -0.01100
C487        C  0.21824315  0.06983646  0.82491073     0.03900
C488        C  0.18803737  0.04968953  0.81914898    -0.04000
C489        C  0.16978161  0.02242022  0.82897684    -0.01100
C490        C  0.18195168  0.01467340  0.84381489     0.03900
C491        C  0.26188147  0.08269004  0.84496395     0.38500
C492        C  0.13783329  0.00310343  0.82438920     0.38500
C493        C  0.16199540  0.48847333  0.85500745     0.36900
C494        C  0.23727671  0.09826420  0.81533244     0.36900
N495        N  0.14605686  0.46710138  0.86353074    -0.37900
N496        N  0.25259919  0.12115810  0.80791014    -0.37900
N497        N  0.11171955  0.49035776  0.82232807    -0.37300
N498        N  0.28697564  0.09904951  0.84909370    -0.37300
C499        C  0.38670868  0.30461199  0.91913213    -0.04000
C500        C  0.39786237  0.29850650  0.93486890    -0.01100
C501        C  0.42257739  0.29273545  0.93404519     0.03900
C502        C  0.43561676  0.29244601  0.91734802    -0.04000
C503        C  0.42682393  0.30230167  0.90198855    -0.01100
C504        C  0.40232229  0.30828332  0.90287755     0.03900
C505        C  0.38213975  0.29553549  0.95162572     0.38500
C506        C  0.44255237  0.30559959  0.88519690     0.38500
C507        C  0.39182269  0.31625465  0.88683503     0.36900
C508        C  0.43278596  0.28474668  0.95019913     0.36900
N509        N  0.38354946  0.32267012  0.87402313    -0.37900
N510        N  0.44096945  0.27850887  0.96311777    -0.37900
N511        N  0.45522267  0.30831087  0.87184289    -0.37300
N512        N  0.36943626  0.29305913  0.96493883    -0.37300
C513        C  0.16022514  0.24580633  0.90716541    -0.04000
C514        C  0.14508900  0.24150036  0.89068120    -0.01100
C515        C  0.11425003  0.23474003  0.89017907     0.03900
C516        C  0.09745506  0.23050431  0.90611164    -0.04000
C517        C  0.11176845  0.23279409  0.92257335    -0.01100
C518        C  0.14304842  0.24118711  0.92316439     0.03900
C519        C  0.16087702  0.24359060  0.87408344     0.38500
C520        C  0.09491292  0.22856396  0.93908665     0.38500
C521        C  0.15758581  0.24673981  0.94046037     0.36900
C522        C  0.09997663  0.23259751  0.87310521     0.36900
N523        N  0.16899972  0.25120367  0.95428857    -0.37900
N524        N  0.08895092  0.23130967  0.85942603    -0.37900
N525        N  0.08151159  0.22513878  0.95224724    -0.37300
N526        N  0.17331790  0.24513864  0.86080499    -0.37300
C527        C  0.21693387  0.10050347  0.92031286    -0.04000
C528        C  0.20950633  0.11188429  0.90504291    -0.01100
C529        C  0.21849669  0.14324068  0.90378273     0.03900
C530        C  0.23537926  0.16323787  0.91764022    -0.04000
C531        C  0.24151725  0.15158679  0.93324643    -0.01100
C532        C  0.23180828  0.12015975  0.93469490     0.03900
C533        C  0.19492528  0.09186751  0.89005125     0.38500
C534        C  0.26032213  0.17235767  0.94710145     0.38500
C535        C  0.23891822  0.10830077  0.95052492     0.36900
C536        C  0.21134075  0.15516004  0.88801946     0.36900
N537        N  0.24454524  0.09884784  0.96315696    -0.37900
N538        N  0.20565708  0.16474220  0.87546434    -0.37900
N539        N  0.27578595  0.18895970  0.95799421    -0.37300
N540        N  0.18347295  0.07593735  0.87805858    -0.37300
C541        C  0.27240296  0.43409756  0.91023993    -0.04000
C542        C  0.29027926  0.43094903  0.89675469    -0.01100
C543        C  0.29702935  0.40680353  0.89763571     0.03900
C544        C  0.28545758  0.38531830  0.91178864    -0.04000
C545        C  0.26828970  0.38889688  0.92549196    -0.01100
C546        C  0.26198978  0.41325450  0.92482872     0.03900
C547        C  0.30221685  0.45285631  0.88215702     0.38500
C548        C  0.25561633  0.36643583  0.93983637     0.38500
C549        C  0.24336221  0.41578172  0.93881439     0.36900
C550        C  0.31658842  0.40452600  0.88423903     0.36900
N551        N  0.22858383  0.41782538  0.94998574    -0.37900
N552        N  0.33265945  0.40316655  0.87367345    -0.37900
N553        N  0.24542172  0.34841568  0.95119622    -0.37300
N554        N  0.31171421  0.47036054  0.87051413    -0.37300
C555        C  0.00911578  0.41515139  0.75273471    -0.04000
C556        C  0.02930831  0.42022784  0.76717557    -0.01100
C557        C  0.06078868  0.44265915  0.76580364     0.03900
C558        C  0.07220834  0.46139684  0.75048722    -0.04000
C559        C  0.05327894  0.45416960  0.73544696    -0.01100
C560        C  0.02233195  0.43077145  0.73632614     0.03900
C561        C  0.01815721  0.40299998  0.78367165     0.38500
C562        C  0.06577807  0.47099408  0.71886944     0.38500
C563        C  0.00472888  0.42318025  0.72001202     0.36900
C564        C  0.08133917  0.44667571  0.78028591     0.36900
N565        N  0.49105565  0.41734293  0.70689629    -0.37900
N566        N  0.09791146  0.44933801  0.79164278    -0.37900
N567        N  0.07554562  0.98485232  0.70529116    -0.37300
N568        N  0.00950403  0.38938584  0.79689633    -0.37300
C569        C  0.28302741  0.24864083  0.75103352    -0.04000
C570        C  0.26928302  0.23163182  0.73563691    -0.01100
C571        C  0.24619576  0.20066837  0.73706803     0.03900
C572        C  0.23799715  0.18584159  0.75397307    -0.04000
C573        C  0.25039090  0.20371439  0.76947696    -0.01100
C574        C  0.27227413  0.23518430  0.76794577     0.03900
C575        C  0.27987841  0.24578508  0.71823799     0.38500
C576        C  0.24266446  0.18963997  0.78703268     0.38500
C577        C  0.28535808  0.25319286  0.78384439     0.36900
C578        C  0.23128481  0.18421228  0.72098887     0.36900
N579        N  0.29548919  0.26740959  0.79659396    -0.37900
N580        N  0.21944928  0.17113723  0.70815607    -0.37900
N581        N  0.23672838  0.17855646  0.80107284    -0.37300
N582        N  0.28846733  0.25702248  0.70437667    -0.37300
C583        C  0.38290141  0.43599066  0.75830701    -0.04000
C584        C  0.37515004  0.45075503  0.74506510    -0.01100
C585        C  0.38302185  0.48165419  0.74712590     0.03900
C586        C  0.39855840  0.49795224  0.76257566    -0.04000
C587        C  0.40401399  0.48232527  0.77647778    -0.01100
C588        C  0.39681047  0.45159378  0.77417359     0.03900
C589        C  0.36021999  0.43444576  0.72897424     0.38500
C590        C  0.41617682  0.99762720  0.79328901     0.38500
C591        C  0.40609019  0.43688583  0.78748635     0.36900
C592        C  0.37562043  0.49683925  0.73311343     0.36900
N593        N  0.41388709  0.42536285  0.79801310    -0.37900
N594        N  0.36985300  0.50899605  0.72191449    -0.37900
N595        N  0.42750559  0.01030144  0.80631041    -0.37300
N596        N  0.34831701  0.42137213  0.71615757    -0.37300
C597        C  0.45495391  0.22178043  0.75003012    -0.04000
C598        C  0.44670433  0.23171910  0.73453555    -0.01100
C599        C  0.43870411  0.25485482  0.73546840     0.03900
C600        C  0.43723366  0.26723505  0.75218591    -0.04000
C601        C  0.44854507  0.25930531  0.76742226    -0.01100
C602        C  0.45778495  0.23701287  0.76622453     0.03900
C603        C  0.44576940  0.21751407  0.71759953     0.38500
C604        C  0.44945327  0.27267760  0.78462421     0.38500
C605        C  0.96838432  0.22841155  0.78200128     0.36900
C606        C  0.43211438  0.26572438  0.71904075     0.36900
N607        N  0.97711114  0.22185924  0.79457443    -0.37900
N608        N  0.42688952  0.27429921  0.70591089    -0.37900
N609        N  0.95034570  0.28325484  0.79840446    -0.37300
N610        N  0.44489930  0.20610639  0.70412004    -0.37300
C611        C  0.35743976  0.32091807  0.81830586    -0.04000
C612        C  0.34107924  0.33515333  0.82474911    -0.01100
C613        C  0.32138590  0.32325067  0.83971689     0.03900
C614        C  0.31775110  0.29684143  0.84885966    -0.04000
C615        C  0.33425574  0.28257035  0.84230415    -0.01100
C616        C  0.35423257  0.29483259  0.82737695     0.03900
C617        C  0.34412003  0.36223088  0.81580445     0.38500
C618        C  0.32987659  0.25429881  0.85027920     0.38500
C619        C  0.37027742  0.27952312  0.82079999     0.36900
C620        C  0.30473777  0.33848576  0.84538385     0.36900
N621        N  0.38308771  0.26729535  0.81560230    -0.37900
N622        N  0.29122626  0.35051740  0.84966034    -0.37900
N623        N  0.32644189  0.23170721  0.85652974    -0.37300
N624        N  0.34598436  0.38360561  0.80875164    -0.37300
C625        C  0.22247051  0.00361767  0.01871860    -0.04000
C626        C  0.19604544  0.48428659  0.00937817    -0.01100
C627        C  0.19629736  0.48546458  0.99054146     0.03900
C628        C  0.22265714  0.00644819  0.98091614    -0.04000
C629        C  0.24836452  0.02790957  0.99062783    -0.01100
C630        C  0.24849955  0.02616070  0.00933569     0.03900
C631        C  0.16886577  0.46144610  0.01874023     0.38500
C632        C  0.27470489  0.05232228  0.98137498     0.38500
C633        C  0.27578844  0.04768469  0.01884984     0.36900
C634        C  0.16955886  0.46348231  0.98081373     0.36900
N635        N  0.29785201  0.06476951  0.02621499    -0.37900
N636        N  0.14823235  0.44587035  0.97307154    -0.37900
N637        N  0.29562796  0.07184147  0.97400671    -0.37300
N638        N  0.14718681  0.44324838  0.02622244    -0.37300
C639        C  0.15835796  0.44903620  0.18224056    -0.04000
C640        C  0.14219722  0.43921477  0.16605883    -0.01100
C641        C  0.15829062  0.44546298  0.14966365     0.03900
C642        C  0.19080067  0.46130950  0.14918660    -0.04000
C643        C  0.20695631  0.47014961  0.16529806    -0.01100
C644        C  0.19104303  0.46430827  0.18165984     0.03900
C645        C  0.10897819  0.42410900  0.16606639     0.38500
C646        C  0.24020122  0.48485178  0.16509093     0.38500
C647        C  0.20900116  0.47440683  0.19779997     0.36900
C648        C  0.14111105  0.43703849  0.13323470     0.36900
N649        N  0.22401485  0.48320339  0.21037686    -0.37900
N650        N  0.12693430  0.43032370  0.12030103    -0.37900
N651        N  0.26624323  0.99595200  0.16473481    -0.37300
N652        N  0.08248284  0.41209029  0.16604284    -0.37300
C653        C  0.28114116  0.26969809  0.01998454    -0.04000
C654        C  0.26402176  0.24381267  0.00906462    -0.01100
C655        C  0.26070994  0.24736602  0.99069553     0.03900
C656        C  0.27644679  0.27678898  0.98242816    -0.04000
C657        C  0.29450385  0.30257805  0.99317981    -0.01100
C658        C  0.29663976  0.29918681  0.01175238     0.03900
C659        C  0.25031409  0.21293916  0.01645847     0.38500
C660        C  0.30994472  0.33316242  0.98536770     0.38500
C661        C  0.31435624  0.32650908  0.02225495     0.36900
C662        C  0.24062637  0.22027080  0.98053723     0.36900
N663        N  0.32857394  0.34845212  0.03053370    -0.37900
N664        N  0.22401261  0.19856718  0.97267846    -0.37900
N665        N  0.32226188  0.35753358  0.97919850    -0.37300
N666        N  0.23946299  0.18833284  0.02222812    -0.37300
C667        C  0.29055522  0.37029657  0.07853609    -0.04000
C668        C  0.27766439  0.37650768  0.06353925    -0.01100
C669        C  0.27169445  0.40111353  0.06375477     0.03900
C670        C  0.27733621  0.41880837  0.07929987    -0.04000
C671        C  0.29215218  0.41387620  0.09382922    -0.01100
C672        C  0.29888652  0.38977054  0.09340286     0.03900
C673        C  0.26816421  0.35600792  0.04843822     0.38500
C674        C  0.29982570  0.43315748  0.10940441     0.38500
C675        C  0.31194596  0.38332072  0.10888678     0.36900
C676        C  0.25751126  0.40659048  0.04845150     0.36900
N677        N  0.32226417  0.37806990  0.12123888    -0.37900
N678        N  0.24629184  0.41102187  0.03622967    -0.37900
N679        N  0.30596879  0.44852480  0.12183898    -0.37300
N680        N  0.26014336  0.33954543  0.03644924    -0.37300
C681        C  0.23134170  0.14581787  0.09710686    -0.04000
C682        C  0.24028403  0.13373335  0.11147926    -0.01100
C683        C  0.23248726  0.10254779  0.11167567     0.03900
C684        C  0.21754726  0.08333927  0.09693845    -0.04000
C685        C  0.20580297  0.09450261  0.08355559    -0.01100
C686        C  0.21186670  0.12516763  0.08395268     0.03900
C687        C  0.25866498  0.15334643  0.12584919     0.38500
C688        C  0.18841346  0.07509878  0.06887686     0.38500
C689        C  0.19758131  0.13517815  0.07078117     0.36900
C690        C  0.23984257  0.09032044  0.12726969     0.36900
N691        N  0.18607057  0.14308521  0.06033011    -0.37900
N692        N  0.24561744  0.08060839  0.13973668    -0.37900
N693        N  0.17452688  0.05977267  0.05712335    -0.37300
N694        N  0.27336380  0.16883804  0.13734282    -0.37300
C695        C  0.43670949  0.37967135  0.23987648    -0.04000
C696        C  0.44885359  0.36759022  0.25228373    -0.01100
C697        C  0.47971112  0.37473882  0.25078435     0.03900
C698        C  0.49879253  0.39467083  0.23709389    -0.04000
C699        C  0.48586901  0.40466053  0.22384632    -0.01100
C700        C  0.45479744  0.39690896  0.22516469     0.03900
C701        C  0.42998112  0.34896500  0.26702097     0.38500
C702        C  0.50501058  0.42480128  0.20963939     0.38500
C703        C  0.44171357  0.40786569  0.21180168     0.36900
C704        C  0.99201216  0.36193559  0.26351310     0.36900
N705        N  0.43121034  0.41653780  0.20115035    -0.37900
N706        N  0.00188900  0.35168069  0.27358458    -0.37900
N707        N  0.52034463  0.44097326  0.19835392    -0.37300
N708        N  0.41491269  0.33410436  0.27878487    -0.37300
C709        C  0.26804384  0.43470328  0.24047931    -0.04000
C710        C  0.27037572  0.45720091  0.25256343    -0.01100
C711        C  0.24552480  0.46252476  0.25494310     0.03900
C712        C  0.21819939  0.44496041  0.24544818    -0.04000
C713        C  0.21673744  0.42393294  0.23250510    -0.01100
C714        C  0.24157402  0.41883306  0.23003575     0.03900
C715        C  0.29806446  0.47418047  0.26288842     0.38500
C716        C  0.18935851  0.40710380  0.22183859     0.38500
C717        C  0.23878353  0.39537621  0.21778505     0.36900
C718        C  0.24685341  0.98489091  0.26734151     0.36900
N719        N  0.23623318  0.37640450  0.20814001    -0.37900
N720        N  0.24852414  0.00289502  0.27747408    -0.37900
N721        N  0.16759170  0.39373978  0.21331396    -0.37300
N722        N  0.31967053  0.98795737  0.27074415    -0.37300
C723        C  0.29216387  0.30930026  0.15046531    -0.04000
C724        C  0.28212186  0.33010013  0.15577595    -0.01100
C725        C  0.29625949  0.35056046  0.17009469     0.03900
C726        C  0.31903874  0.34920158  0.18033985    -0.04000
C727        C  0.32956270  0.32904085  0.17494811    -0.01100
C728        C  0.31677843  0.30978248  0.16004370     0.03900
C729        C  0.25662654  0.33034117  0.14694171     0.38500
C730        C  0.35445350  0.32864368  0.18448748     0.38500
C731        C  0.33006685  0.29125355  0.15447401     0.36900
C732        C  0.28707090  0.37298782  0.17426003     0.36900
N733        N  0.34087803  0.27666423  0.15007892    -0.37900
N734        N  0.28013827  0.39128359  0.17725537    -0.37900
N735        N  0.37420430  0.32821870  0.19209595    -0.37300
N736        N  0.23628861  0.33067652  0.14000227    -0.37300
C737        C  0.12432208  0.04118363  0.24331366    -0.04000
C738        C  0.11764146  0.05267721  0.25870521    -0.01100
C739        C  0.11058656  0.07644866  0.25747135     0.03900
C740        C  0.11075889  0.08982788  0.24066294    -0.04000
C741        C  0.11955133  0.07954511  0.22535254    -0.01100
C742        C  0.12625747  0.05531870  0.22669905     0.03900
C743        C  0.11759461  0.03953801  0.27599650     0.38500
C744        C  0.12179165  0.09374703  0.20816144     0.38500
C745        C  0.13388658  0.04407959  0.21085891     0.36900
C746        C  0.10160573  0.08563205  0.27368961     0.36900
N747        N  0.14004372  0.03516511  0.19822004    -0.37900
N748        N  0.09455023  0.09284123  0.28668197    -0.37900
N749        N  0.12358366  0.10502364  0.19441787    -0.37300
N750        N  0.11755822  0.02900541  0.28972674    -0.37300
C751        C  0.04453477  0.25292626  0.24863354    -0.04000
C752        C  0.05017944  0.26949093  0.26449690    -0.01100
C753        C  0.05798468  0.30063362  0.26392662     0.03900
C754        C  0.06144585  0.31571796  0.24729443    -0.04000
C755        C  0.05064885  0.29736378  0.23178177    -0.01100
C756        C  0.04248126  0.26615046  0.23251829     0.03900
C757        C  0.04973936  0.25488969  0.28127646     0.38500
C758        C  0.04879527  0.31027774  0.21484352     0.38500
C759        C  0.53381070  0.24795113  0.21643050     0.36900
C760        C  0.06228346  0.31684397  0.28052058     0.36900
N761        N  0.52682275  0.23341792  0.20362495    -0.37900
N762        N  0.06547325  0.32965687  0.29377946    -0.37900
N763        N  0.54697932  0.32030407  0.20130550    -0.37300
N764        N  0.04933646  0.24315230  0.29463672    -0.37300
C765        C  0.42303149  0.00616913  0.23459561    -0.04000
C766        C  0.45358980  0.01281031  0.23659319    -0.01100
C767        C  0.47733644  0.04324340  0.23814988     0.03900
C768        C  0.47101457  0.06774687  0.23743157    -0.04000
C769        C  0.44042337  0.06119834  0.23526951    -0.01100
C770        C  0.41645496  0.03039652  0.23371563     0.03900
C771        C  0.46126218  0.48809353  0.23739948     0.38500
C772        C  0.43362751  0.08601142  0.23456891     0.38500
C773        C  0.38502034  0.02356186  0.23172512     0.36900
C774        C  0.00826325  0.04898497  0.24126806     0.36900
N775        N  0.35992173  0.01806836  0.23007264    -0.37900
N776        N  0.03275336  0.05319937  0.24373429    -0.37900
N777        N  0.42817495  0.10581904  0.23409991    -0.37300
N778        N  0.46719685  0.46864010  0.23818939    -0.37300
C779        C  0.24817113  0.28947112  0.25235876    -0.04000
C780        C  0.23817883  0.27041049  0.23721885    -0.01100
C781        C  0.20686399  0.24846829  0.23535621     0.03900
C782        C  0.18553486  0.24576002  0.24848448    -0.04000
C783        C  0.19566033  0.26368120  0.26396486    -0.01100
C784        C  0.22690748  0.28506856  0.26605142     0.03900
C785        C  0.25955411  0.27463417  0.22299048     0.38500
C786        C  0.17359691  0.26161136  0.27722891     0.38500
C787        C  0.23697613  0.30333421  0.28210825     0.36900
C788        C  0.19647998  0.22890829  0.21985547     0.36900
N789        N  0.24488135  0.31797167  0.29486632    -0.37900
N790        N  0.18816724  0.21324299  0.20751650    -0.37900
N791        N  0.15597201  0.26023716  0.28767287    -0.37300
N792        N  0.27651122  0.27794830  0.21159614    -0.37300
C793        C  0.00714837  0.23275997  0.97825148    -0.04000
C794        C  0.98722873  0.20434910  0.98675893    -0.01100
C795        C  0.98602144  0.20203786  0.00549667     0.03900
C796        C  0.00406672  0.22815510  0.01587056    -0.04000
C797        C  0.52346767  0.25656917  0.00748131    -0.01100
C798        C  0.52547143  0.25879689  0.98881663     0.03900
C799        C  0.96701205  0.17761168  0.97639721     0.38500
C800        C  0.54065112  0.28395203  0.01809442     0.38500
C801        C  0.54695515  0.28802191  0.98064303     0.36900
C802        C  0.96670221  0.17259562  0.01409204     0.36900
N803        N  0.56404086  0.31137608  0.97419062    -0.37900
N804        N  0.95139215  0.14907734  0.02091945    -0.37900
N805        N  0.55415735  0.30574226  0.02657865    -0.37300
N806        N  0.95077539  0.15625430  0.96819627    -0.37300
C807        C  0.15563033  0.21675394  0.08367630    -0.04000
C808        C  0.14286708  0.21487635  0.06666543    -0.01100
C809        C  0.11186202  0.20676731  0.06513200     0.03900
C810        C  0.09342318  0.20021606  0.08050352    -0.04000
C811        C  0.10530616  0.19895554  0.09728252    -0.01100
C812        C  0.13646180  0.20745543  0.09888174     0.03900
C813        C  0.16204089  0.22349468  0.05079748     0.38500
C814        C  0.08615114  0.19103957  0.11309550     0.38500
C815        C  0.14892118  0.20716726  0.11620897     0.36900
C816        C  0.09917522  0.20650534  0.04777839     0.36900
N817        N  0.15888164  0.20695633  0.13002341    -0.37900
N818        N  0.08905277  0.20633982  0.03395741    -0.37900
N819        N  0.07105737  0.18463080  0.12579169    -0.37300
N820        N  0.17733160  0.23036600  0.03815771    -0.37300
C821        C  0.42220095  0.25244247  0.09450614    -0.04000
C822        C  0.39188203  0.22790960  0.09329885    -0.01100
C823        C  0.36721309  0.23357360  0.09255470     0.03900
C824        C  0.37240928  0.26393950  0.09364913    -0.04000
C825        C  0.40280682  0.28855395  0.09518134    -0.01100
C826        C  0.42767486  0.28278477  0.09554281     0.03900
C827        C  0.38597566  0.19653945  0.09283337     0.38500
C828        C  0.40852907  0.31970068  0.09654574     0.38500
C829        C  0.45890278  0.30803063  0.09643666     0.36900
C830        C  0.33654863  0.20794675  0.08972196     0.36900
N831        N  0.48385532  0.32814297  0.09714407    -0.37900
N832        N  0.31224837  0.18742202  0.08736965    -0.37900
N833        N  0.41315750  0.34459894  0.09762216    -0.37300
N834        N  0.38112658  0.17151214  0.09257860    -0.37300
C835        C  0.08114161  0.33514404  0.08709587    -0.04000
C836        C  0.10877425  0.34313937  0.09571987    -0.01100
C837        C  0.13280803  0.37351652  0.09524508     0.03900
C838        C  0.13009130  0.39607069  0.08518145    -0.04000
C839        C  0.10177684  0.38827320  0.07716310    -0.01100
C840        C  0.07735274  0.35763527  0.07798669     0.03900
C841        C  0.11342761  0.31950909  0.10392324     0.38500
C842        C  0.09809604  0.41123738  0.06750411     0.38500
C843        C  0.04901317  0.34884222  0.06867336     0.36900
C844        C  0.16046841  0.38099821  0.10507651     0.36900
N845        N  0.02648401  0.34174786  0.06111442    -0.37900
N846        N  0.18224494  0.38613498  0.11291929    -0.37900
N847        N  0.09501687  0.42957615  0.05988574    -0.37300
N848        N  0.11749289  0.30069869  0.11007885    -0.37300
C849        C  0.40633683  0.11598233  0.08256813    -0.04000
C850        C  0.38261091  0.11498094  0.07183889    -0.01100
C851        C  0.35186791  0.09379296  0.07561586     0.03900
C852        C  0.34428484  0.07043717  0.08832710    -0.04000
C853        C  0.36766087  0.06913716  0.09787009    -0.01100
C854        C  0.39865396  0.09203371  0.09518963     0.03900
C855        C  0.38935009  0.13512063  0.05648678     0.38500
C856        C  0.35980263  0.04404377  0.11024893     0.38500
C857        C  0.42228466  0.09019276  0.10517014     0.36900
C858        C  0.32776829  0.09694527  0.06693332     0.36900
N859        N  0.44102418  0.08827377  0.11301201    -0.37900
N860        N  0.30856697  0.09978472  0.06033405    -0.37900
N861        N  0.35350937  0.02398882  0.12010655    -0.37300
N862        N  0.39452898  0.15103444  0.04423363    -0.37300
C863        C  0.05243535  0.18916303  0.17895004    -0.04000
C864        C  0.02394294  0.16652131  0.17195960    -0.01100
C865        C  0.01092863  0.17324162  0.15716859     0.03900
C866        C  0.02590336  0.20264593  0.14910365    -0.04000
C867        C  0.05354745  0.22566987  0.15653236    -0.01100
C868        C  0.06704057  0.21886764  0.17106194     0.03900
C869        C  0.50708543  0.13645466  0.18030052     0.38500
C870        C  0.06855272  0.25645831  0.14912678     0.38500
C871        C  0.09653272  0.24252396  0.17751921     0.36900
C872        C  0.48126242  0.15006035  0.15065077     0.36900
N873        N  0.12003907  0.26143862  0.18263747    -0.37900
N874        N  0.45749690  0.13168045  0.14554988    -0.37900
N875        N  0.08038870  0.28122579  0.14352025    -0.37300
N876        N  0.49350399  0.11244906  0.18689041    -0.37300
C877        C  0.39038889  0.33535001  0.64584600    -0.04000
C878        C  0.41642579  0.33987241  0.65589087    -0.01100
C879        C  0.41657996  0.34210594  0.67458181     0.03900
C880        C  0.39112696  0.33989571  0.68370556    -0.04000
C881        C  0.36516765  0.33519584  0.67413688    -0.01100
C882        C  0.36457568  0.33271635  0.65535761     0.03900
C883        C  0.44345245  0.34197282  0.64743867     0.38500
C884        C  0.33897932  0.33289393  0.68371905     0.38500
C885        C  0.33678815  0.32647008  0.64615941     0.36900
C886        C  0.44298259  0.34610455  0.68460880     0.36900
N887        N  0.31446029  0.32138003  0.63896152    -0.37900
N888        N  0.46393684  0.34915036  0.69258664    -0.37900
N889        N  0.31816585  0.33117547  0.69138496    -0.37300
N890        N  0.46503348  0.34339397  0.64092912    -0.37300
C891        C  0.33957710  0.40025687  0.35063869    -0.04000
C892        C  0.32830409  0.37239113  0.34137492    -0.01100
C893        C  0.33188731  0.37259306  0.32272974     0.03900
C894        C  0.34699653  0.40064438  0.31322067    -0.04000
C895        C  0.35923811  0.42854332  0.32253379    -0.01100
C896        C  0.35553492  0.42836657  0.34117316     0.03900
C897        C  0.31408084  0.34353659  0.35110767     0.38500
C898        C  0.37453395  0.45745423  0.31285762     0.38500
C899        C  0.36729941  0.45719510  0.35053118     0.36900
C900        C  0.32061922  0.34389698  0.31331266     0.36900
N901        N  0.37668461  0.48017583  0.35799586    -0.37900
N902        N  0.31178968  0.32107456  0.30575275    -0.37900
N903        N  0.38670415  0.48051995  0.30514963    -0.37300
N904        N  0.30293729  0.32055388  0.35890625    -0.37300
C905        C  0.37852013  0.35226702  0.51249736    -0.04000
C906        C  0.38596974  0.34572423  0.49568812    -0.01100
C907        C  0.37414479  0.35187450  0.48008813     0.03900
C908        C  0.35596423  0.36658175  0.48099271    -0.04000
C909        C  0.34882405  0.37321952  0.49805485    -0.01100
C910        C  0.35873289  0.36469398  0.51360115     0.03900
C911        C  0.40611339  0.33282090  0.49445055     0.38500
C912        C  0.33060634  0.38812037  0.49984347     0.38500
C913        C  0.34683389  0.36685614  0.53081959     0.36900
C914        C  0.38115661  0.34275527  0.46322661     0.36900
N915        N  0.33686954  0.36810796  0.54448731    -0.37900
N916        N  0.38665378  0.33477119  0.44999676    -0.37900
N917        N  0.31634262  0.40029604  0.50139757    -0.37300
N918        N  0.42222773  0.32260443  0.49346185    -0.37300
C919        C  0.16866821  0.06944828  0.64722628    -0.04000
C920        C  0.18554305  0.05942047  0.65744426    -0.01100
C921        C  0.18430187  0.05971279  0.67619951     0.03900
C922        C  0.16610327  0.07004268  0.68493761    -0.04000
C923        C  0.14905808  0.07988182  0.67467544    -0.01100
C924        C  0.15018222  0.07940559  0.65593195     0.03900
C925        C  0.20322231  0.04756994  0.64867904     0.38500
C926        C  0.13147873  0.09196115  0.68333796     0.38500
C927        C  0.13293413  0.09010607  0.64560758     0.36900
C928        C  0.20122837  0.04857263  0.68646024     0.36900
N929        N  0.11911906  0.09853342  0.63736669    -0.37900
N930        N  0.21478603  0.03974404  0.69461949    -0.37900
N931        N  0.11756808  0.10171716  0.69023620    -0.37300
N932        N  0.21722767  0.03799387  0.64171102    -0.37300
C933        C  0.07856673  0.45340867  0.58519566    -0.04000
C934        C  0.06831457  0.43643734  0.56931789    -0.01100
C935        C  0.03721756  0.41368452  0.56761291     0.03900
C936        C  0.01647435  0.40768598  0.58182668    -0.04000
C937        C  0.02769958  0.42221692  0.59837375    -0.01100
C938        C  0.05869090  0.44484128  0.60004576     0.03900
C939        C  0.08922313  0.44356109  0.55438376     0.38500
C940        C  0.00705622  0.41569928  0.61339421     0.38500
C941        C  0.07001765  0.46017628  0.61693432     0.36900
C942        C  0.02654898  0.39660112  0.55122133     0.36900
N943        N  0.07909977  0.47239531  0.63038116    -0.37900
N944        N  0.01809998  0.38290390  0.53815721    -0.37900
N945        N  0.49070493  0.41071342  0.62539432    -0.37300
N946        N  0.10594211  0.44912404  0.54250518    -0.37300
C947        C  0.29160416  0.24205140  0.57246507    -0.04000
C948        C  0.27528691  0.22746225  0.58817132    -0.01100
C949        C  0.25088133  0.19685543  0.58769168     0.03900
C950        C  0.24374803  0.17971039  0.57170490    -0.04000
C951        C  0.25865489  0.19509563  0.55576620    -0.01100
C952        C  0.28181341  0.22627435  0.55611032     0.03900
C953        C  0.28497773  0.24297787  0.60511167     0.38500
C954        C  0.25175759  0.17862134  0.53910510     0.38500
C955        C  0.29599927  0.24207608  0.53954498     0.36900
C956        C  0.23321282  0.18309606  0.60381751     0.36900
N957        N  0.30726304  0.25476149  0.52636025    -0.37900
N958        N  0.21910179  0.17221092  0.61667294    -0.37900
N959        N  0.24644819  0.16555385  0.52579200    -0.37300
N960        N  0.29283406  0.25518848  0.61865942    -0.37300
C961        C  0.11055732  0.44164870  0.35202208    -0.04000
C962        C  0.08306819  0.43136301  0.34230484    -0.01100
C963        C  0.08322007  0.42969260  0.32358726     0.03900
C964        C  0.11085424  0.43864056  0.31421532    -0.04000
C965        C  0.13844537  0.44955488  0.32380236    -0.01100
C966        C  0.13829077  0.45084825  0.34259941     0.03900
C967        C  0.05435191  0.42265358  0.35145661     0.38500
C968        C  0.16720040  0.46007325  0.31431689     0.38500
C969        C  0.16656027  0.46039324  0.35219569     0.36900
C970        C  0.05450363  0.41754981  0.31402737     0.36900
N971        N  0.18934847  0.97181840  0.35927820    -0.37900
N972        N  0.03165011  0.40785702  0.30638876    -0.37900
N973        N  0.18990724  0.97261618  0.30622142    -0.37300
N974        N  0.03138136  0.41556343  0.35868205    -0.37300
C975        C  0.48550625  0.39607842  0.42071474    -0.04000
C976        C  0.47159052  0.40459021  0.43434007    -0.01100
C977        C  0.44144342  0.39890377  0.43238018     0.03900
C978        C  0.42401131  0.38286711  0.41747031    -0.04000
C979        C  0.43612486  0.37096933  0.40501852    -0.01100
C980        C  0.46661861  0.37706994  0.40670514     0.03900
C981        C  0.98779561  0.41916013  0.45055313     0.38500
C982        C  0.41801800  0.35458238  0.38970272     0.38500
C983        C  0.47802998  0.36371020  0.39381222     0.36900
C984        C  0.42875003  0.41083797  0.44546264     0.36900
N985        N  0.48680737  0.35270363  0.38355633    -0.37900
N986        N  0.41886987  0.42058927  0.45584267    -0.37900
N987        N  0.40363746  0.34177207  0.37742034    -0.37300
N988        N  0.00042991  0.43064409  0.46355877    -0.37300
C989        C  0.20686209  0.44621687  0.42325189    -0.04000
C990        C  0.20482535  0.42288838  0.41208148    -0.01100
C991        C  0.22655292  0.41310180  0.41321804     0.03900
C992        C  0.25200585  0.42796745  0.42479313    -0.04000
C993        C  0.25471120  0.45230824  0.43548341    -0.01100
C994        C  0.23164988  0.46072261  0.43510333     0.03900
C995        C  0.17951286  0.40812101  0.39971519     0.38500
C996        C  0.28156775  0.46933737  0.44642584     0.38500
C997        C  0.23308720  0.48386765  0.44708783     0.36900
C998        C  0.22161030  0.38662752  0.40294367     0.36900
N999        N  0.23417728  0.50223862  0.45673540    -0.37900
N1000       N  0.21755989  0.36551126  0.39476314    -0.37900
N1001       N  0.30316355  0.48309297  0.45502568    -0.37300
N1002       N  0.15941145  0.39652167  0.38983371    -0.37300
C1003       C  0.12290377  0.48186450  0.48438105    -0.04000
C1004       C  0.11048775  0.99871077  0.49085087    -0.01100
C1005       C  0.12411327  0.01967974  0.50496199     0.03900
C1006       C  0.14901060  0.02116772  0.51436657    -0.04000
C1007       C  0.16187376  0.50529818  0.50778154    -0.01100
C1008       C  0.14918757  0.48501584  0.49328228     0.03900
C1009       C  0.08307296  0.99610286  0.48282066     0.38500
C1010       C  0.18936444  0.50883664  0.51624558     0.38500
C1011       C  0.16385405  0.46786693  0.48754868     0.36900
C1012       C  0.11210729  0.03957433  0.50987770     0.36900
N1013       N  0.17558863  0.45414794  0.48311967    -0.37900
N1014       N  0.10281702  0.05579845  0.51352143    -0.37900
N1015       N  0.21131550  0.51173743  0.52295341    -0.37300
N1016       N  0.06130315  0.99428807  0.47648414    -0.37300
C1017       C  0.05691926  0.16195082  0.34972883    -0.04000
C1018       C  0.02966004  0.14890213  0.33975240    -0.01100
C1019       C  0.03082309  0.14848783  0.32093249     0.03900
C1020       C  0.05943763  0.16116199  0.31181267    -0.04000
C1021       C  0.08676760  0.17441828  0.32203885    -0.01100
C1022       C  0.08541107  0.17476817  0.34077835     0.03900
C1023       C  0.00033887  0.13658064  0.34886302     0.38500
C1024       C  0.11673180  0.18818539  0.31352576     0.38500
C1025       C  0.11360480  0.18765732  0.35094009     0.36900
C1026       C  0.00230503  0.13420934  0.31113786     0.36900
N1027       N  0.13600148  0.19792111  0.35907127    -0.37900
N1028       N  0.97950135  0.12284864  0.30337428    -0.37900
N1029       N  0.14074815  0.19894034  0.30692921    -0.37300
N1030       N  0.97695187  0.12685251  0.35611645    -0.37300
C1031       C  0.12132502  0.04865278  0.41532019    -0.04000
C1032       C  0.11383766  0.05927006  0.39986199    -0.01100
C1033       C  0.10522293  0.08200235  0.40104821     0.03900
C1034       C  0.10214202  0.09288486  0.41795039    -0.04000
C1035       C  0.11276529  0.08431338  0.43320299    -0.01100
C1036       C  0.12291542  0.06279932  0.43172034     0.03900
C1037       C  0.11331624  0.04547585  0.38287291     0.38500
C1038       C  0.11163170  0.09585970  0.45067259     0.38500
C1039       C  0.13387750  0.05407844  0.44727691     0.36900
C1040       C  0.09948798  0.09394906  0.38477924     0.36900
N1041       N  0.14310617  0.04746721  0.45959851    -0.37900
N1042       N  0.09504284  0.10357211  0.37180600    -0.37900
N1043       N  0.11076365  0.10493464  0.46465632    -0.37300
N1044       N  0.11237177  0.53407046  0.36893047    -0.37300
C1045       C  0.06888046  0.32466733  0.42294897    -0.04000
C1046       C  0.05773732  0.30446382  0.43777865    -0.01100
C1047       C  0.04855583  0.27305449  0.43577792     0.03900
C1048       C  0.05054490  0.26159919  0.41897298    -0.04000
C1049       C  0.06066216  0.28145218  0.40408890    -0.01100
C1050       C  0.07020921  0.31272895  0.40603860     0.03900
C1051       C  0.05558793  0.31577029  0.45511873     0.38500
C1052       C  0.06145727  0.26964814  0.38658929     0.38500
C1053       C  0.08257839  0.33259741  0.39049118     0.36900
C1054       C  0.03825862  0.25282494  0.45119389     0.36900
N1055       N  0.09220747  0.34817867  0.37801179    -0.37900
N1056       N  0.52997436  0.23665814  0.46347484    -0.37900
N1057       N  0.06216092  0.26026624  0.37267479    -0.37300
N1058       N  0.05396361  0.32473554  0.46899774    -0.37300
C1059       C  0.23203016  0.29039398  0.42124699    -0.04000
C1060       C  0.21048204  0.29401345  0.43168466    -0.01100
C1061       C  0.17990600  0.26976661  0.43354551     0.03900
C1062       C  0.17045856  0.24148899  0.42511516    -0.04000
C1063       C  0.19223859  0.23737712  0.41530219    -0.01100
C1064       C  0.22293332  0.26163711  0.41348099     0.03900
C1065       C  0.21969569  0.32296763  0.44042401     0.38500
C1066       C  0.18274233  0.20831581  0.40665972     0.38500
C1067       C  0.24465213  0.25753163  0.40279002     0.36900
C1068       C  0.15760472  0.27461186  0.44316470     0.36900
N1069       N  0.26198707  0.25427839  0.39422540    -0.37900
N1070       N  0.13972429  0.27848719  0.45071599    -0.37900
N1071       N  0.17502117  0.18509258  0.39977161    -0.37300
N1072       N  0.22703750  0.34603925  0.44740381    -0.37300
C1073       C  0.39909574  0.01012466  0.42617169    -0.04000
C1074       C  0.42318668  0.02286868  0.43853382    -0.01100
C1075       C  0.44692568  0.05347314  0.43645343     0.03900
C1076       C  0.44647983  0.07170677  0.42217977    -0.04000
C1077       C  0.42068283  0.06007997  0.41105263    -0.01100
C1078       C  0.39710997  0.02920078  0.41294926     0.03900
C1079       C  0.42496579  0.00382195  0.45251465     0.38500
C1080       C  0.41924671  0.07927046  0.39707877     0.38500
C1081       C  0.37122159  0.01667689  0.40096931     0.36900
C1082       C  0.47281170  0.06572331  0.44847086     0.36900
N1083       N  0.35092612  0.50677408  0.39156604    -0.37900
N1084       N  0.99346585  0.07537622  0.45802266    -0.37900
N1085       N  0.41795822  0.09458948  0.38596358    -0.37300
N1086       N  0.42649157  0.98871256  0.46367623    -0.37300
C1087       C  0.43598273  0.10211130  0.65104937    -0.04000
C1088       C  0.46420269  0.11537971  0.66015235    -0.01100
C1089       C  0.46470691  0.11666980  0.67890380     0.03900
C1090       C  0.43699806  0.10467641  0.68865678    -0.04000
C1091       C  0.40877377  0.09115434  0.67956119    -0.01100
C1092       C  0.40827670  0.09007743  0.66083631     0.03900
C1093       C  0.49281811  0.12883517  0.65019940     0.38500
C1094       C  0.38009197  0.07719746  0.68950649     0.38500
C1095       C  0.37909466  0.07572552  0.65170306     0.36900
C1096       C  0.49379859  0.13128060  0.68812222     0.36900
N1097       N  0.35575085  0.06430745  0.64450498    -0.37900
N1098       N  0.01698914  0.14297695  0.69548824    -0.37900
N1099       N  0.35727590  0.06596715  0.69746713    -0.37300
N1100       N  0.01561541  0.13964510  0.64223311    -0.37300
C1101       C  0.43147196  0.25377283  0.57766648    -0.04000
C1102       C  0.42392582  0.23676170  0.59378469    -0.01100
C1103       C  0.43351252  0.21523933  0.59668453     0.03900
C1104       C  0.44901423  0.20888848  0.58309251    -0.04000
C1105       C  0.45749068  0.22653382  0.56720523    -0.01100
C1106       C  0.44888975  0.24908834  0.56456593     0.03900
C1107       C  0.40496827  0.24022592  0.60721015     0.38500
C1108       C  0.47407017  0.22086817  0.55328750     0.38500
C1109       C  0.45825915  0.26767764  0.54848418     0.36900
C1110       C  0.42719684  0.19944432  0.61376803     0.36900
N1111       N  0.46573938  0.28258316  0.53567800    -0.37900
N1112       N  0.42215541  0.18685965  0.62735567    -0.37900
N1113       N  0.98739695  0.21646984  0.54218116    -0.37300
N1114       N  0.38981493  0.24286472  0.61789530    -0.37300
C1115       C  0.38353766  0.42761021  0.57691118    -0.04000
C1116       C  0.39423720  0.44618649  0.56139980    -0.01100
C1117       C  0.39906918  0.47619229  0.56149333     0.03900
C1118       C  0.39460161  0.48842554  0.57735813    -0.04000
C1119       C  0.38114141  0.46896126  0.59233591    -0.01100
C1120       C  0.37525357  0.43842117  0.59201980     0.03900
C1121       C  0.40235676  0.43544453  0.54550154     0.38500
C1122       C  0.37388908  0.48049328  0.60819622     0.38500
C1123       C  0.36287004  0.41897957  0.60766854     0.36900
C1124       C  0.41085848  0.49500180  0.54550931     0.36900
N1125       N  0.35293234  0.40342115  0.62013286    -0.37900
N1126       N  0.42008064  0.50979946  0.53271306    -0.37900
N1127       N  0.36942344  0.99042438  0.62094336    -0.37300
N1128       N  0.40958895  0.42804783  0.53265706    -0.37300
C1129       C  0.32585779  0.06580079  0.57378156    -0.04000
C1130       C  0.31379122  0.07645937  0.56037637    -0.01100
C1131       C  0.28312150  0.06992349  0.56155002     0.03900
C1132       C  0.26441820  0.05260826  0.57602327    -0.04000
C1133       C  0.27554148  0.03972540  0.58853527    -0.01100
C1134       C  0.30617188  0.04617941  0.58739877     0.03900
C1135       C  0.33334454  0.09583826  0.54605002     0.38500
C1136       C  0.25531758  0.52132768  0.60274194     0.38500
C1137       C  0.31748913  0.03280997  0.60037863     0.36900
C1138       C  0.27108480  0.08213791  0.54827622     0.36900
N1139       N  0.32645563  0.02206894  0.61070962    -0.37900
N1140       N  0.26138174  0.09182981  0.53773460    -0.37900
N1141       N  0.23962303  0.50612648  0.61421720    -0.37300
N1142       N  0.34893242  0.11128239  0.53460889    -0.37300
C1143       C  0.04405483  0.11414572  0.58097374    -0.04000
C1144       C  0.04106381  0.09262084  0.56793653    -0.01100
C1145       C  0.06516309  0.08667578  0.56478600     0.03900
C1146       C  0.09246531  0.10240580  0.57450529    -0.04000
C1147       C  0.09640179  0.12562206  0.58651367    -0.01100
C1148       C  0.07216465  0.13155918  0.58973524     0.03900
C1149       C  0.51285410  0.07617133  0.55789025     0.38500
C1150       C  0.12509669  0.14267399  0.59593093     0.38500
C1151       C  0.07550247  0.15414869  0.60275889     0.36900
C1152       C  0.06088819  0.06271532  0.55251466     0.36900
N1153       N  0.07817204  0.17216860  0.61317231    -0.37900
N1154       N  0.05702004  0.04333103  0.54282758    -0.37900
N1155       N  0.14805174  0.15629959  0.60338636    -0.37300
N1156       N  0.49036263  0.06317940  0.54992651    -0.37300
C1157       C  0.48436758  0.12692804  0.51785263    -0.04000
C1158       C  0.46709985  0.12109082  0.50217020    -0.01100
C1159       C  0.48171153  0.12824341  0.48528053     0.03900
C1160       C  0.01422707  0.14152412  0.48363049    -0.04000
C1161       C  0.03129634  0.14621790  0.49935692    -0.01100
C1162       C  0.01662340  0.13930979  0.51625598     0.03900
C1163       C  0.43417408  0.10881638  0.50332742     0.38500
C1164       C  0.06424901  0.15887641  0.49837398     0.38500
C1165       C  0.03525723  0.14517908  0.53199920     0.36900
C1166       C  0.46251189  0.12131942  0.46967465     0.36900
N1167       N  0.05063331  0.15045818  0.54437078    -0.37900
N1168       N  0.44678001  0.11579342  0.45744006    -0.37900
N1169       N  0.09051277  0.16880356  0.49768836    -0.37300
N1170       N  0.40794598  0.09904873  0.50421374    -0.37300
Zn1171     Zn  0.44944231  0.58009608  0.59750254     1.49700
Zn1172     Zn  0.47716072  0.64064702  0.57437625     1.49400
Zn1173     Zn  0.41615493  0.58070317  0.56174696     1.49100
Zn1174     Zn  0.41489701  0.61494137  0.59614165     1.49500
O1175       O  0.43957437  0.60424549  0.58212083    -1.82800
O1176       O  0.49158773  0.59051543  0.59122959    -0.73400
O1177       O  0.48296750  0.63873315  0.54813693    -0.73200
O1178       O  0.40484427  0.53686106  0.56576435    -0.72800
O1179       O  0.01477551  0.64001018  0.58363951    -0.73400
O1180       O  0.42236688  0.53552762  0.59264547    -0.73000
O1181       O  0.44207507  0.59661748  0.53862752    -0.73600
O1182       O  0.37124892  0.58935714  0.58943360    -0.73000
O1183       O  0.47440248  0.67924509  0.57862203    -0.73800
O1184       O  0.37420542  0.57790390  0.56117607    -0.73200
O1185       O  0.42740348  0.65783207  0.59035070    -0.73600
O1186       O  0.41949492  0.61146173  0.62255825    -0.73500
O1187       O  0.44718358  0.58826019  0.62341782    -0.73300
C1188       C  0.01529494  0.61517470  0.58633740     0.78500
C1189       C  0.46856435  0.62002845  0.53573999     0.79000
C1190       C  0.40743114  0.52201698  0.57878154     0.77900
C1191       C  0.35866930  0.57827838  0.57458873     0.78300
C1192       C  0.45123248  0.68100717  0.58408213     0.79400
C1193       C  0.43365933  0.60062043  0.63125946     0.78500
Zn1194     Zn  0.07972615  0.69676745  0.40379256     1.49700
Zn1195     Zn  0.01934661  0.66444228  0.42759107     1.49400
Zn1196     Zn  0.03995621  0.62667962  0.40423838     1.49100
Zn1197     Zn  0.08024822  0.66182769  0.43817833     1.49500
O1198       O  0.05482510  0.66241936  0.41874890    -1.82800
O1199       O  0.06975748  0.72932666  0.40954145    -0.73400
O1200       O  0.47865901  0.62704227  0.42024706    -0.73200
O1201       O  0.04064306  0.63615218  0.37792804    -0.72800
O1202       O  0.02469663  0.70703565  0.42366247    -0.73400
O1203       O  0.07253164  0.68644418  0.37768573    -0.73000
O1204       O  0.99762229  0.59707191  0.41231660    -0.73600
O1205       O  0.09273229  0.62999211  0.43220680    -0.73000
O1206       O  0.01650105  0.65795524  0.45371518    -0.73800
O1207       O  0.06643892  0.60784584  0.40787157    -0.73200
O1208       O  0.05466023  0.65066205  0.46193676    -0.73600
O1209       O  0.12206928  0.70244505  0.43815029    -0.73500
O1210       O  0.12433449  0.71435992  0.40937541    -0.73300
C1211       C  0.04786098  0.73081753  0.41711873     0.78500
C1212       C  0.47546930  0.60049787  0.41764679     0.79000
C1213       C  0.05619935  0.66138327  0.36950056     0.77900
C1214       C  0.08635190  0.61123829  0.41939411     0.78300
C1215       C  0.02959139  0.65055001  0.46555622     0.79400
C1216       C  0.13725149  0.71766802  0.42436778     0.78500
Zn1217     Zn  0.11582141  0.92110194  0.43961660     1.49700
Zn1218     Zn  0.07477296  0.90869276  0.40522147     1.49400
Zn1219     Zn  0.08212286  0.95696861  0.43224521     1.49100
Zn1220     Zn  0.13801462  0.97161871  0.40715456     1.49500
O1221       O  0.10356730  0.93960302  0.42078921    -1.82800
O1222       O  0.09184297  0.87372037  0.43794431    -0.73400
O1223       O  0.03191646  0.90036622  0.40870779    -0.73200
O1224       O  0.09769291  0.96953423  0.45681560    -0.72800
O1225       O  0.07237347  0.86955979  0.41095482    -0.73400
O1226       O  0.11783301  0.94080599  0.46403259    -0.73000
O1227       O  0.03649615  0.92943232  0.43156444    -0.73600
O1228       O  0.14114099  0.51358193  0.41189053    -0.73000
O1229       O  0.08692206  0.91877910  0.37969356    -0.73800
O1230       O  0.09232283  0.49618321  0.41964003    -0.73200
O1231       O  0.13042350  0.96317911  0.38043300    -0.73600
O1232       O  0.17666187  0.96902125  0.41328810    -0.73500
O1233       O  0.15882770  0.93212565  0.43411049    -0.73300
C1234       C  0.07830083  0.85774457  0.42422250     0.78500
C1235       C  0.01966895  0.90881018  0.42053935     0.79000
C1236       C  0.11169499  0.96192864  0.46793866     0.77900
C1237       C  0.11856807  0.51794727  0.41512487     0.78300
C1238       C  0.10920998  0.94118000  0.37170200     0.79400
C1239       C  0.18007447  0.95075220  0.42374989     0.78500
Zn1240     Zn  0.13319461  0.55056087  0.59336628     1.49700
Zn1241     Zn  0.16696862  0.58815174  0.55813138     1.49400
Zn1242     Zn  0.20391746  0.58670996  0.59258408     1.49100
Zn1243     Zn  0.16806712  0.52652687  0.56997152     1.49500
O1244       O  0.16823366  0.56331890  0.57817642    -1.95400
O1245       O  0.11250025  0.57430741  0.58808646    -0.73400
O1246       O  0.20431678  0.63186496  0.55934000    -0.73200
O1247       O  0.19422683  0.58114547  0.61913792    -0.72800
O1248       O  0.13102492  0.59559656  0.56156871    -0.73400
O1249       O  0.14339412  0.55587964  0.61912516    -0.73000
O1250       O  0.22260494  0.63107523  0.58610495    -0.73600
O1251       O  0.20960387  0.52989474  0.57268174    -0.73000
O1252       O  0.16086492  0.56478272  0.53428517    -0.73800
O1253       O  0.23526389  0.57467433  0.58656839    -0.73200
O1254       O  0.16002346  0.52260588  0.54414911    -0.73600
O1255       O  0.13234804  0.98731130  0.58048418    -0.73500
O1256       O  0.10372014  0.50661144  0.58953893    -0.73300
C1257       C  0.11299392  0.59013501  0.57476921     0.78500
C1258       C  0.22213064  0.64578132  0.57237190     0.79000
C1259       C  0.16860779  0.56860432  0.62742437     0.77900
C1260       C  0.23438257  0.55188745  0.57872892     0.78300
C1261       C  0.15752447  0.53811484  0.53156489     0.79400
C1262       C  0.10679464  0.98452452  0.58546976     0.78500
Zn1263     Zn  0.29743570  0.88219247  0.40374318     1.49700
Zn1264     Zn  0.36615377  0.91954306  0.40537116     1.49400
Zn1265     Zn  0.32925725  0.91519280  0.44007766     1.49100
Zn1266     Zn  0.33086208  0.85565430  0.42504721     1.49500
O1267       O  0.33088398  0.89315076  0.41913019    -1.82800
O1268       O  0.30925632  0.88446323  0.37747250    -0.73400
O1269       O  0.38196736  0.96346276  0.41112328    -0.73200
O1270       O  0.28833114  0.91616365  0.43834052    -0.72800
O1271       O  0.35967966  0.91422468  0.37924866    -0.73400
O1272       O  0.28228144  0.91088044  0.40894607    -0.73000
O1273       O  0.36205273  0.96076194  0.43798142    -0.73600
O1274       O  0.34008170  0.85680664  0.45073628    -0.73000
O1275       O  0.39697211  0.90828352  0.41166187    -0.73800
O1276       O  0.33917966  0.89650026  0.46278039    -0.73200
O1277       O  0.36931010  0.85728169  0.41452045    -0.73600
O1278       O  0.28771543  0.81738548  0.42207161    -0.73500
O1279       O  0.26338012  0.84017279  0.41056553    -0.73300
C1280       C  0.33564444  0.89920413  0.37009097     0.78500
C1281       C  0.37958584  0.97631441  0.42506363     0.79000
C1282       C  0.27568351  0.91805609  0.42388914     0.77900
C1283       C  0.34401248  0.87368464  0.46407824     0.78300
C1284       C  0.39508368  0.88232347  0.41386865     0.79400
C1285       C  0.26288755  0.81682177  0.41758489     0.78500
Zn1286     Zn  0.42273727  0.87355874  0.56403936     1.49700
Zn1287     Zn  0.38657516  0.80376753  0.55903350     1.49400
Zn1288     Zn  0.42574790  0.83298418  0.59357243     1.49100
Zn1289     Zn  0.36423880  0.83467958  0.58916868     1.49500
O1290       O  0.39906367  0.83572634  0.57668573    -1.82800
O1291       O  0.40759861  0.86960188  0.53896479    -0.73400
O1292       O  0.41106320  0.78118082  0.56172596    -0.73200
O1293       O  0.46852451  0.86754213  0.59156956    -0.72800
O1294       O  0.38321071  0.81945130  0.53420643    -0.73400
O1295       O  0.46891546  0.89158045  0.56663700    -0.73000
O1296       O  0.42864073  0.79631326  0.58908888    -0.73600
O1297       O  0.37056191  0.83644866  0.61635064    -0.73000
O1298       O  0.34360378  0.77250520  0.56466204    -0.73800
O1299       O  0.41180012  0.83189777  0.61840138    -0.73200
O1300       O  0.32489469  0.79401151  0.58297836    -0.73600
O1301       O  0.36320093  0.87375474  0.58232230    -0.73500
O1302       O  0.41195994  0.90319731  0.57369605    -0.73300
C1303       C  0.39095599  0.84671739  0.52923594     0.78500
C1304       C  0.42382604  0.77887240  0.57591531     0.79000
C1305       C  0.48284554  0.88800024  0.57978558     0.77900
C1306       C  0.39068069  0.83474373  0.62585560     0.78300
C1307       C  0.32145264  0.77138344  0.57350068     0.79400
C1308       C  0.38589444  0.89981206  0.57778835     0.78500
Zn1309     Zn  0.03889193  0.74206198  0.06922989     1.49700
Zn1310     Zn  0.46930987  0.71071521  0.07028661     1.49400
Zn1311     Zn  0.00270786  0.68328277  0.09346498     1.49100
Zn1312     Zn  0.00537745  0.74700648  0.10415709     1.49500
O1313       O  0.00412271  0.72074008  0.08465853    -1.82800
O1314       O  0.02839350  0.73604244  0.04358277    -0.73400
O1315       O  0.43909735  0.66794315  0.07536519    -0.73200
O1316       O  0.03979390  0.68052592  0.08516846    -0.72800
O1317       O  0.47784442  0.71526210  0.04389781    -0.73400
O1318       O  0.06824345  0.72761396  0.07394420    -0.73000
O1319       O  0.46114521  0.64497677  0.08894046    -0.73600
O1320       O  0.01493690  0.73210198  0.12764614    -0.73000
O1321       O  0.44892913  0.73419436  0.07746075    -0.73800
O1322       O  0.00964432  0.68717505  0.11964158    -0.73200
O1323       O  0.46595735  0.74959264  0.10492662    -0.73600
O1324       O  0.03910358  0.79032739  0.09915688    -0.73500
O1325       O  0.05963217  0.78675680  0.07358146    -0.73300
C1326       C  0.50312474  0.72586819  0.03548678     0.78500
C1327       C  0.43747982  0.64403021  0.08212683     0.79000
C1328       C  0.06537639  0.70242368  0.07954154     0.77900
C1329       C  0.01574928  0.70761451  0.13130848     0.78300
C1330       C  0.44754595  0.74564772  0.09223481     0.79400
C1331       C  0.05794580  0.80243456  0.08625670     0.78500
Zn1332     Zn  0.09127004  0.70716046  0.23212481     1.49700
Zn1333     Zn  0.03409273  0.66157625  0.25538412     1.49400
Zn1334     Zn  0.06267236  0.63862587  0.22364732     1.49100
Zn1335     Zn  0.09859298  0.66472135  0.25920493     1.49500
O1336       O  0.07098398  0.66737265  0.24282754    -1.82800
O1337       O  0.07686527  0.73295818  0.24367142    -0.73400
O1338       O  0.49766228  0.61946170  0.24834750    -0.73200
O1339       O  0.06050292  0.65671534  0.19951608    -0.72800
O1340       O  0.02839203  0.69890925  0.25076567    -0.73400
O1341       O  0.07706899  0.70488275  0.20710787    -0.73000
O1342       O  0.02047580  0.60525398  0.22801509    -0.73600
O1343       O  0.10492097  0.63008109  0.25302069    -0.73000
O1344       O  0.04023924  0.66114053  0.28230313    -0.73800
O1345       O  0.08845065  0.61689100  0.22545969    -0.73200
O1346       O  0.08364835  0.66023539  0.28436116    -0.73600
O1347       O  0.13994448  0.70162667  0.25765171    -0.73500
O1348       O  0.13733531  0.72773757  0.23437304    -0.73300
C1349       C  0.04982450  0.72650722  0.24797659     0.78500
C1350       C  0.49743190  0.59954093  0.23769210     0.79000
C1351       C  0.06467776  0.68339498  0.19586296     0.77900
C1352       C  0.10126931  0.61379233  0.23940601     0.78300
C1353       C  0.06092704  0.66041414  0.29174377     0.79400
C1354       C  0.15252331  0.72363237  0.24654783     0.78500
Zn1355     Zn  0.30990437  0.88483892  0.25987187     1.49700
Zn1356     Zn  0.34105519  0.91746204  0.22357075     1.49400
Zn1357     Zn  0.37925394  0.91639904  0.25775668     1.49100
Zn1358     Zn  0.34009053  0.85538663  0.23654674     1.49500
O1359       O  0.34290232  0.89374160  0.24397275    -1.82800
O1360       O  0.29159567  0.91108769  0.25514215    -0.73400
O1361       O  0.37972011  0.96012582  0.22361599    -0.73200
O1362       O  0.37186561  0.91249033  0.28460533    -0.72800
O1363       O  0.30577814  0.92593691  0.22709842    -0.73400
O1364       O  0.32107257  0.88826941  0.28546848    -0.73000
O1365       O  0.39827036  0.95997960  0.25057142    -0.73600
O1366       O  0.38158620  0.85718313  0.23848890    -0.73000
O1367       O  0.33324099  0.89269087  0.20018510    -0.73800
O1368       O  0.40932459  0.90310783  0.25084829    -0.73200
O1369       O  0.33024588  0.84999704  0.21081014    -0.73600
O1370       O  0.30265703  0.81831763  0.24738037    -0.73500
O1371       O  0.27779839  0.84243885  0.25587332    -0.73300
C1372       C  0.28998496  0.92384161  0.24089618     0.78500
C1373       C  0.39845659  0.97378959  0.23630015     0.79000
C1374       C  0.34668993  0.90023932  0.29331784     0.77900
C1375       C  0.40727924  0.87949813  0.24340312     0.78300
C1376       C  0.32827601  0.86533631  0.19791783     0.79400
C1377       C  0.27804511  0.81798532  0.25210768     0.78500
Zn1378     Zn  0.24969315  0.78059314  0.09783183     1.49700
Zn1379     Zn  0.28087452  0.74429358  0.10824051     1.49400
Zn1380     Zn  0.24613593  0.72989178  0.07277450     1.49100
Zn1381     Zn  0.30784429  0.79357771  0.07612145     1.49500
O1382       O  0.27167238  0.76218934  0.08843137    -1.82800
O1383       O  0.26524397  0.79682999  0.12236180    -0.73400
O1384       O  0.25202450  0.69758480  0.10872521    -0.73200
O1385       O  0.20289548  0.72038809  0.07538038    -0.72800
O1386       O  0.28419099  0.76771823  0.13107150    -0.73400
O1387       O  0.20395696  0.75217101  0.09620712    -0.73000
O1388       O  0.24544911  0.69087126  0.07960243    -0.73600
O1389       O  0.30186158  0.78671695  0.04941653    -0.73000
O1390       O  0.32270791  0.75101926  0.10344400    -0.73800
O1391       O  0.25829048  0.74285677  0.04733475    -0.73200
O1392       O  0.34485500  0.78886212  0.08338456    -0.73600
O1393       O  0.31069476  0.83557577  0.08007500    -0.73500
O1394       O  0.26054413  0.81778991  0.08365175    -0.73300
C1395       C  0.27927821  0.78994644  0.13393708     0.78500
C1396       C  0.24338294  0.67988019  0.09520992     0.79000
C1397       C  0.18929337  0.73021591  0.08539064     0.77900
C1398       C  0.28069250  0.76616419  0.03996328     0.78300
C1399       C  0.34555998  0.76883631  0.09369404     0.79400
C1400       C  0.28748806  0.83967074  0.08051037     0.78500
Zn1401     Zn  0.21693971  0.95158307  0.09507842     1.49700
Zn1402     Zn  0.19731142  0.49295494  0.07611421     1.49400
Zn1403     Zn  0.24997254  0.51872328  0.10560326     1.49100
Zn1404     Zn  0.26152947  0.49509653  0.06878375     1.49500
O1405       O  0.23227605  0.49137749  0.08611919    -1.82800
O1406       O  0.18285582  0.92573995  0.07945819    -0.73400
O1407       O  0.19770862  0.53176794  0.08563229    -0.73200
O1408       O  0.22917036  0.49722257  0.12898781    -0.72800
O1409       O  0.15821073  0.95162529  0.08218887    -0.73400
O1410       O  0.19980105  0.94899942  0.11966554    -0.73000
O1411       O  0.23933674  0.55167632  0.10242648    -0.73600
O1412       O  0.30059362  0.53156868  0.07511978    -0.73000
O1413       O  0.20281249  0.49727434  0.04894469    -0.73800
O1414       O  0.29667637  0.53994405  0.10396702    -0.73200
O1415       O  0.24797661  0.49997520  0.04458756    -0.73600
O1416       O  0.27014991  0.95977869  0.06881076    -0.73500
O1417       O  0.24696972  0.93619436  0.09391768    -0.73300
C1418       C  0.15806902  0.92609288  0.08169148     0.78500
C1419       C  0.21767245  0.55375036  0.09507854     0.79000
C1420       C  0.20749851  0.96933482  0.13158068     0.77900
C1421       C  0.31226903  0.54554654  0.08956016     0.78300
C1422       C  0.22442527  0.50023517  0.03860520     0.79400
C1423       C  0.26458650  0.93970211  0.08082074     0.78500
Zn1424     Zn  0.08868868  0.90741464  0.22582191     1.49700
Zn1425     Zn  0.08873415  0.94620356  0.25856911     1.49400
Zn1426     Zn  0.12393123  0.91109892  0.26127068     1.49100
Zn1427     Zn  0.14972910  0.96976060  0.23675838     1.49500
O1428       O  0.11276312  0.93371103  0.24530329    -1.82800
O1429       O  0.04736942  0.90624797  0.22440942    -0.73400
O1430       O  0.09502333  0.94501290  0.28502858    -0.73200
O1431       O  0.09526916  0.86566518  0.25858066    -0.72800
O1432       O  0.04472461  0.91926871  0.25241727    -0.73400
O1433       O  0.07476255  0.86317472  0.23227497    -0.73000
O1434       O  0.12350670  0.92268958  0.28693142    -0.73600
O1435       O  0.18799533  0.97019570  0.24626528    -0.73000
O1436       O  0.10064584  0.98907285  0.25166142    -0.73800
O1437       O  0.16591332  0.92089096  0.25424753    -0.73200
O1438       O  0.14765189  0.50942533  0.23944628    -0.73600
O1439       O  0.15454053  0.96477151  0.21101120    -0.73500
O1440       O  0.11533022  0.92023672  0.20271393    -0.73300
C1441       C  0.03194902  0.90725317  0.23773671     0.78500
C1442       C  0.10984720  0.93543804  0.29423506     0.79000
C1443       C  0.07755598  0.84988717  0.24603892     0.77900
C1444       C  0.18930379  0.94580248  0.24924441     0.78300
C1445       C  0.12487954  0.51196769  0.24484626     0.79400
C1446       C  0.14131782  0.94414119  0.19937883     0.78500
Zn1447     Zn  0.41289377  0.87583373  0.73792152     1.49700
Zn1448     Zn  0.41977526  0.84034618  0.77147747     1.49400
Zn1449     Zn  0.35604479  0.83918055  0.76257814     1.49100
Zn1450     Zn  0.37898762  0.80504226  0.73773823     1.49500
O1451       O  0.39216904  0.84005089  0.75275067    -1.82800
O1452       O  0.45763673  0.89390661  0.74163605    -0.73400
O1453       O  0.39834109  0.83310188  0.79654208    -0.73200
O1454       O  0.35878806  0.88092105  0.76124146    -0.72800
O1455       O  0.46256955  0.87870482  0.76843299    -0.73400
O1456       O  0.40215733  0.90731556  0.74573571    -0.73000
O1457       O  0.35505535  0.83099483  0.78809369    -0.73600
O1458       O  0.33600216  0.77448718  0.74363708    -0.73000
O1459       O  0.42998016  0.80661536  0.76658121    -0.73800
O1460       O  0.31635308  0.80214330  0.75466333    -0.73200
O1461       O  0.40479845  0.78569682  0.74181668    -0.73600
O1462       O  0.38076914  0.81560492  0.71176328    -0.73500
O1463       O  0.40392665  0.86650043  0.71167855    -0.73300
C1464       C  0.47463907  0.89490626  0.75437774     0.78500
C1465       C  0.37158919  0.82912150  0.80013931     0.79000
C1466       C  0.38026115  0.90610648  0.75490170     0.77900
C1467       C  0.31342476  0.77671863  0.74942728     0.78300
C1468       C  0.42368081  0.78798014  0.75374350     0.79400
C1469       C  0.39136162  0.84103678  0.70350344     0.78500
Zn1470     Zn  0.25950791  0.79358640  0.89428339     1.49700
Zn1471     Zn  0.24255056  0.75091777  0.92856194     1.49400
Zn1472     Zn  0.29469040  0.75844656  0.90274384     1.49100
Zn1473     Zn  0.30567857  0.81313904  0.92777287     1.49500
O1474       O  0.27554914  0.77947357  0.91338426    -1.82800
O1475       O  0.21227339  0.77045072  0.89509397    -0.73400
O1476       O  0.23573205  0.70859082  0.92609785    -0.73200
O1477       O  0.30664020  0.77171641  0.87747897    -0.72800
O1478       O  0.20337815  0.74820416  0.92163582    -0.73400
O1479       O  0.27991824  0.79411760  0.87034195    -0.73000
O1480       O  0.26913137  0.71240960  0.90534911    -0.73600
O1481       O  0.34853372  0.81989133  0.92253798    -0.73000
O1482       O  0.25110883  0.76105277  0.95434727    -0.73800
O1483       O  0.33503758  0.77251310  0.91378836    -0.73200
O1484       O  0.29776529  0.80142017  0.95414525    -0.73600
O1485       O  0.30181610  0.85125938  0.92290756    -0.73500
O1486       O  0.27124933  0.83723493  0.89923656    -0.73300
C1487       C  0.19375721  0.75534641  0.90783300     0.78500
C1488       C  0.24717143  0.69652232  0.91612621     0.79000
C1489       C  0.29987703  0.78637984  0.86629073     0.77900
C1490       C  0.35519216  0.79918460  0.91863004     0.78300
C1491       C  0.27485357  0.78032527  0.96263458     0.79400
C1492       C  0.28702981  0.85678255  0.91101742     0.78500
Zn1493     Zn  0.20061868  0.59040213  0.73840461     1.49700
Zn1494     Zn  0.13170284  0.55825087  0.73996585     1.49400
Zn1495     Zn  0.16670855  0.53173621  0.76347208     1.49100
Zn1496     Zn  0.16924418  0.59483048  0.77399247     1.49500
O1497       O  0.16676349  0.56836742  0.75433399    -1.82800
O1498       O  0.19089532  0.58191100  0.71272242    -0.73400
O1499       O  0.10104670  0.51457594  0.74491321    -0.73200
O1500       O  0.20750220  0.53340032  0.75739988    -0.72800
O1501       O  0.14056338  0.56197642  0.71330122    -0.73400
O1502       O  0.23132399  0.57936048  0.74444331    -0.73000
O1503       O  0.12620569  0.99306914  0.75684519    -0.73600
O1504       O  0.17948219  0.58003240  0.79748029    -0.73000
O1505       O  0.11392928  0.58466438  0.74700646    -0.73800
O1506       O  0.16996559  0.53325060  0.79017217    -0.73200
O1507       O  0.13059757  0.59855683  0.77474283    -0.73600
O1508       O  0.20205639  0.63857351  0.76858695    -0.73500
O1509       O  0.21963003  0.63525396  0.74212626    -0.73300
C1510       C  0.16553215  0.57111925  0.70468036     0.78500
C1511       C  0.10172728  0.99108343  0.75043063     0.79000
C1512       C  0.23202471  0.55716037  0.75203489     0.77900
C1513       C  0.17804898  0.55455107  0.80152112     0.78300
C1514       C  0.11377894  0.59720852  0.76166828     0.79400
C1515       C  0.21892993  0.65125006  0.75496050     0.78500
Zn1516     Zn  0.26333651  0.51062599  0.92905822     1.49700
Zn1517     Zn  0.25373831  0.54899102  0.90145000     1.49400
Zn1518     Zn  0.22593140  0.98375173  0.89292636     1.49100
Zn1519     Zn  0.19821926  0.50652469  0.92504050     1.49500
O1520       O  0.23424740  0.51090527  0.91278550    -1.82800
O1521       O  0.30493632  0.54842842  0.92610946    -0.73400
O1522       O  0.23647926  0.54862030  0.87756068    -0.73200
O1523       O  0.25214778  0.96288606  0.89501754    -0.72800
O1524       O  0.29830208  0.56471277  0.90002507    -0.73400
O1525       O  0.26774925  0.97439406  0.92313877    -0.73000
O1526       O  0.22197207  0.00145938  0.86879478    -0.73600
O1527       O  0.16144166  0.96496383  0.91748636    -0.73000
O1528       O  0.24568565  0.57674263  0.91551836    -0.73800
O1529       O  0.18432077  0.95076027  0.89732901    -0.73200
O1530       O  0.19560661  0.54568585  0.92027257    -0.73600
O1531       O  0.20300185  0.00493583  0.95163962    -0.73500
O1532       O  0.24855015  0.00806848  0.95403244    -0.73300
C1533       C  0.31565682  0.56628873  0.91268650     0.78500
C1534       C  0.22482379  0.52766208  0.86600751     0.79000
C1535       C  0.26395912  0.95876329  0.90912899     0.77900
C1536       C  0.16118818  0.94498405  0.90686709     0.78300
C1537       C  0.21914734  0.57255845  0.91899373     0.79400
C1538       C  0.22460892  0.00624379  0.96111396     0.78500
Zn1539     Zn  0.03089007  0.75758860  0.89118874     1.49700
Zn1540     Zn  0.01010546  0.77447158  0.92698578     1.49400
Zn1541     Zn  0.46381042  0.72755947  0.90242245     1.49100
Zn1542     Zn  0.00455682  0.70849731  0.92204444     1.49500
O1543       O  0.00365873  0.74294356  0.91090691    -1.82800
O1544       O  0.05133048  0.80381897  0.89040457    -0.73400
O1545       O  0.47725010  0.78593752  0.92619343    -0.73200
O1546       O  0.46077764  0.70962026  0.87806382    -0.72800
O1547       O  0.04795793  0.81198770  0.91941219    -0.73400
O1548       O  0.00945492  0.73305255  0.86911431    -0.73000
O1549       O  0.44857417  0.75769814  0.90391380    -0.73600
O1550       O  0.46485120  0.66917341  0.91527684    -0.73000
O1551       O  0.01105706  0.76057315  0.95171390    -0.73800
O1552       O  0.43865094  0.69334315  0.91867733    -0.73200
O1553       O  0.00455762  0.71372388  0.94873584    -0.73600
O1554       O  0.04491663  0.71005110  0.91530609    -0.73500
O1555       O  0.06466407  0.74911945  0.89610849    -0.73300
C1556       C  0.05940750  0.82137272  0.90395345     0.78500
C1557       C  0.45511476  0.77833150  0.91556212     0.79000
C1558       C  0.48122636  0.71343989  0.86668616     0.77900
C1559       C  0.43922203  0.66871843  0.91621971     0.78300
C1560       C  0.00766826  0.73578837  0.95848784     0.79400
C1561       C  0.06714244  0.72946555  0.90556673     0.78500
Zn1562     Zn  0.45332348  0.59107233  0.74353091     1.49700
Zn1563     Zn  0.47505289  0.65076944  0.76608217     1.49400
Zn1564     Zn  0.41681426  0.62514121  0.74150044     1.49100
Zn1565     Zn  0.41273793  0.58790901  0.77700816     1.49500
O1566       O  0.43939138  0.61375629  0.75736572    -1.82800
O1567       O  0.99596059  0.60309811  0.75042420    -0.73400
O1568       O  0.47641462  0.68961769  0.75680784    -0.73200
O1569       O  0.42242543  0.61846439  0.71589615    -0.72800
O1570       O  0.01445269  0.64859443  0.76343594    -0.73400
O1571       O  0.45116868  0.59640550  0.71703606    -0.73000
O1572       O  0.43002371  0.66917137  0.74477680    -0.73600
O1573       O  0.36918347  0.57862226  0.77302502    -0.73000
O1574       O  0.46935877  0.65359001  0.79203507    -0.73800
O1575       O  0.37238355  0.60128042  0.74696941    -0.73200
O1576       O  0.42710380  0.61111725  0.80080871    -0.73600
O1577       O  0.40825436  0.54511923  0.77634714    -0.73500
O1578       O  0.42725235  0.54681671  0.74927725    -0.73300
C1579       C  0.01758496  0.62629369  0.75797487     0.78500
C1580       C  0.45433384  0.69222778  0.75039251     0.79000
C1581       C  0.43685129  0.60694332  0.70820537     0.77900
C1582       C  0.35686248  0.58478598  0.76009186     0.78300
C1583       C  0.44997361  0.63763504  0.80400912     0.79400
C1584       C  0.41206138  0.53180308  0.76292466     0.78500
C1585       C  0.47208273  0.69284505  0.85096998    -0.04000
C1586       C  0.98707265  0.67589220  0.84740324    -0.01100
C1587       C  0.47870158  0.65634393  0.83254797     0.03900
C1588       C  0.45414811  0.65214586  0.82168459    -0.04000
C1589       C  0.43782870  0.66747362  0.82590974    -0.01100
C1590       C  0.44708442  0.68816451  0.84027942     0.03900
C1591       C  0.01028298  0.67746517  0.85943679     0.38500
C1592       C  0.41237246  0.66308957  0.81490910     0.38500
C1593       C  0.43191099  0.70585024  0.84343370     0.36900
C1594       C  0.99571772  0.64087173  0.82826226     0.36900
N1595       N  0.41996271  0.72014382  0.84582828    -0.37900
N1596       N  0.00945450  0.62867962  0.82487865    -0.37900
N1597       N  0.39199503  0.65959380  0.80619513    -0.37300
N1598       N  0.02843907  0.67827115  0.86916014    -0.37300
C1599       C  0.13431843  0.91345096  0.90562924    -0.04000
C1600       C  0.13927656  0.88852251  0.90167520    -0.01100
C1601       C  0.11435080  0.85880380  0.89963849     0.03900
C1602       C  0.08435541  0.85323285  0.90231400    -0.04000
C1603       C  0.07906480  0.87759008  0.90632053    -0.01100
C1604       C  0.10394256  0.90770118  0.90790961     0.03900
C1605       C  0.16996803  0.89255056  0.90069874     0.38500
C1606       C  0.04785979  0.87151714  0.90866631     0.38500
C1607       C  0.09803257  0.93248211  0.91190153     0.36900
C1608       C  0.11974094  0.83355327  0.89571059     0.36900
N1609       N  0.09318896  0.95214296  0.91520182    -0.37900
N1610       N  0.12424912  0.81361908  0.89256804    -0.37900
N1611       N  0.02290952  0.86650921  0.91045168    -0.37300
N1612       N  0.19422989  0.89537101  0.89987270    -0.37300
C1613       C  0.34837532  0.59088298  0.91209609    -0.04000
C1614       C  0.35622806  0.61912524  0.90364531    -0.01100
C1615       C  0.38655279  0.64327334  0.90373478     0.03900
C1616       C  0.40931855  0.64058196  0.91333165    -0.04000
C1617       C  0.40201418  0.61217196  0.92118696    -0.01100
C1618       C  0.37164287  0.58728145  0.92048020     0.03900
C1619       C  0.33296011  0.62467176  0.89580601     0.38500
C1620       C  0.42530982  0.60877156  0.93055579     0.38500
C1621       C  0.36448133  0.55816371  0.92854247     0.36900
C1622       C  0.39378339  0.67121273  0.89401773     0.36900
N1623       N  0.35878938  0.53497963  0.93503044    -0.37900
N1624       N  0.39859533  0.69317478  0.88632235    -0.37900
N1625       N  0.44384210  0.60591198  0.93800358    -0.37300
N1626       N  0.31458873  0.62930428  0.88962280    -0.37300
C1627       C  0.09294649  0.61006264  0.76325413    -0.04000
C1628       C  0.06914030  0.59811342  0.77604654    -0.01100
C1629       C  0.04537442  0.60521623  0.77495336     0.03900
C1630       C  0.04595129  0.62528215  0.76153339    -0.04000
C1631       C  0.07131750  0.63971455  0.74989912    -0.01100
C1632       C  0.09460871  0.63180490  0.75057984     0.03900
C1633       C  0.06791540  0.57685858  0.78957698     0.38500
C1634       C  0.07266448  0.66153358  0.73672879     0.38500
C1635       C  0.11996596  0.64552766  0.73798763     0.36900
C1636       C  0.01923159  0.59035524  0.78695968     0.36900
N1637       N  0.14017845  0.65641863  0.72793574    -0.37900
N1638       N  0.99818275  0.57831366  0.79636673    -0.37900
N1639       N  0.07382872  0.67908450  0.72628730    -0.37300
N1640       N  0.06697841  0.55997986  0.80041490    -0.37300
C1641       C  0.32411464  0.57535889  0.76074661    -0.04000
C1642       C  0.31630083  0.59821627  0.76358016    -0.01100
C1643       C  0.28590821  0.59147155  0.76164809     0.03900
C1644       C  0.26295818  0.56184490  0.75612195    -0.04000
C1645       C  0.27055668  0.53845913  0.75411879    -0.01100
C1646       C  0.30119572  0.54522036  0.75659211     0.03900
C1647       C  0.33993247  0.62926635  0.76786680     0.38500
C1648       C  0.24769701  0.00926966  0.74681796     0.38500
C1649       C  0.30943975  0.52164287  0.75414157     0.36900
C1650       C  0.27873247  0.61565606  0.76514769     0.36900
N1651       N  0.31625612  0.00397977  0.75023260    -0.37900
N1652       N  0.27335849  0.63518442  0.76770518    -0.37900
N1653       N  0.22961093  0.98546803  0.74159151    -0.37300
N1654       N  0.35869064  0.65408312  0.77105836    -0.37300
C1655       C  0.21294260  0.53415297  0.84926415    -0.04000
C1656       C  0.23135809  0.56136646  0.83940253    -0.01100
C1657       C  0.21930824  0.56907802  0.82451260     0.03900
C1658       C  0.18861467  0.54975173  0.81923554    -0.04000
C1659       C  0.16986953  0.52318052  0.82950273    -0.01100
C1660       C  0.18194011  0.51532099  0.84434769     0.03900
C1661       C  0.26316855  0.58109593  0.84424625     0.38500
C1662       C  0.13761763  0.50476147  0.82534450     0.38500
C1663       C  0.16240493  0.98711228  0.85404652     0.36900
C1664       C  0.23896515  0.59660923  0.81433842     0.36900
N1665       N  0.14676420  0.96517133  0.86222566    -0.37900
N1666       N  0.25480532  0.61875866  0.80640215    -0.37900
N1667       N  0.11215718  0.98796076  0.82101948    -0.37300
N1668       N  0.28854436  0.59679728  0.84810236    -0.37300
C1669       C  0.38700665  0.80530256  0.91898988    -0.04000
C1670       C  0.39859852  0.79989192  0.93476394    -0.01100
C1671       C  0.42310468  0.79379780  0.93393175     0.03900
C1672       C  0.43557856  0.79263871  0.91719792    -0.04000
C1673       C  0.42651644  0.80204019  0.90176181    -0.01100
C1674       C  0.40220435  0.80830086  0.90266416     0.03900
C1675       C  0.38360413  0.79811207  0.95161990     0.38500
C1676       C  0.44179449  0.80463446  0.88489337     0.38500
C1677       C  0.39159400  0.81609323  0.88660811     0.36900
C1678       C  0.43366495  0.78640216  0.95015301     0.36900
N1679       N  0.38330768  0.82246813  0.87378887    -0.37900
N1680       N  0.44211895  0.78063625  0.96312874    -0.37900
N1681       N  0.45410723  0.80678098  0.87147847    -0.37300
N1682       N  0.37151539  0.79666283  0.96501836    -0.37300
C1683       C  0.16030002  0.74605532  0.90703498    -0.04000
C1684       C  0.14565634  0.74334439  0.89052285    -0.01100
C1685       C  0.11486523  0.73673226  0.89000142     0.03900
C1686       C  0.09761772  0.73121711  0.90588949    -0.04000
C1687       C  0.11143936  0.73201978  0.92231839    -0.01100
C1688       C  0.14261408  0.74001912  0.92297949     0.03900
C1689       C  0.16188821  0.74698230  0.87387655     0.38500
C1690       C  0.09421369  0.72666131  0.93880459     0.38500
C1691       C  0.15643109  0.74350735  0.94037375     0.36900
C1692       C  0.10112272  0.73607809  0.87294642     0.36900
N1693       N  0.16723184  0.74626800  0.95428914    -0.37900
N1694       N  0.09050665  0.73598932  0.85930471    -0.37900
N1695       N  0.08054612  0.72237446  0.95194796    -0.37300
N1696       N  0.17467089  0.74979428  0.86055072    -0.37300
C1697       C  0.21702124  0.60057342  0.92058882    -0.04000
C1698       C  0.20932894  0.61185550  0.90538037    -0.01100
C1699       C  0.21839496  0.64323203  0.90406133     0.03900
C1700       C  0.23540371  0.66331003  0.91786359    -0.04000
C1701       C  0.24166394  0.65172956  0.93345632    -0.01100
C1702       C  0.23210452  0.62032898  0.93490444     0.03900
C1703       C  0.19435994  0.59168542  0.89050381     0.38500
C1704       C  0.26039204  0.67256013  0.94731061     0.38500
C1705       C  0.23960775  0.60861681  0.95064995     0.36900
C1706       C  0.21123541  0.65508994  0.88827401     0.36900
N1707       N  0.24558652  0.59929880  0.96320865    -0.37900
N1708       N  0.20557545  0.66461295  0.87568421    -0.37900
N1709       N  0.27575947  0.68922530  0.95820839    -0.37300
N1710       N  0.18256707  0.57560328  0.87861675    -0.37300
C1711       C  0.27209138  0.93403587  0.90994378    -0.04000
C1712       C  0.28968300  0.93068009  0.89636109    -0.01100
C1713       C  0.29648835  0.90657468  0.89726905     0.03900
C1714       C  0.28538783  0.88542403  0.91160214    -0.04000
C1715       C  0.26847426  0.88919859  0.92538434    -0.01100
C1716       C  0.26198557  0.91342296  0.92464073     0.03900
C1717       C  0.30123118  0.95230598  0.88161570     0.38500
C1718       C  0.25616759  0.86701158  0.93988061     0.38500
C1719       C  0.24339801  0.91598688  0.93863995     0.36900
C1720       C  0.31551446  0.90391896  0.88366001     0.36900
N1721       N  0.22862055  0.91804430  0.94980669    -0.37900
N1722       N  0.33110007  0.90220805  0.87289677    -0.37900
N1723       N  0.24625860  0.84920960  0.95136292    -0.37300
N1724       N  0.31041130  0.96958823  0.86985678    -0.37300
C1725       C  0.00899417  0.91575820  0.75244782    -0.04000
C1726       C  0.02950635  0.91997474  0.76657368    -0.01100
C1727       C  0.06105625  0.94214155  0.76508228     0.03900
C1728       C  0.07230346  0.96135682  0.74994917    -0.04000
C1729       C  0.05310617  0.95472154  0.73507945    -0.01100
C1730       C  0.02194068  0.93191171  0.73612453     0.03900
C1731       C  0.01863318  0.90211862  0.78288099     0.38500
C1732       C  0.06561441  0.97149618  0.71848514     0.38500
C1733       C  0.00380717  0.92570523  0.72009242     0.36900
C1734       C  0.08189779  0.94524569  0.77920492     0.36900
N1735       N  0.48970625  0.92108287  0.70721031    -0.37900
N1736       N  0.09869050  0.94715107  0.79024808    -0.37900
N1737       N  0.07567205  0.48445769  0.70570237    -0.37300
N1738       N  0.01020758  0.88800895  0.79595647    -0.37300
C1739       C  0.28379598  0.74805242  0.75102247    -0.04000
C1740       C  0.26954957  0.73128115  0.73563854    -0.01100
C1741       C  0.24638905  0.70034560  0.73706443     0.03900
C1742       C  0.23875437  0.68529486  0.75389731    -0.04000
C1743       C  0.25184714  0.70284768  0.76941437    -0.01100
C1744       C  0.27370585  0.73430466  0.76793304     0.03900
C1745       C  0.27967481  0.74560968  0.71824910     0.38500
C1746       C  0.24486526  0.68842853  0.78688501     0.38500
C1747       C  0.28743738  0.75198393  0.78384921     0.36900
C1748       C  0.23072294  0.68415639  0.72107409     0.36900
N1749       N  0.29805971  0.76587456  0.79663909    -0.37900
N1750       N  0.21824026  0.67130163  0.70831817    -0.37900
N1751       N  0.23952316  0.67705121  0.80084623    -0.37300
N1752       N  0.28787151  0.75692629  0.70437303    -0.37300
C1753       C  0.38126031  0.93537374  0.75882037    -0.04000
C1754       C  0.37358773  0.95008044  0.74550306    -0.01100
C1755       C  0.38149710  0.98101173  0.74746765     0.03900
C1756       C  0.39672529  0.99732920  0.76298274    -0.04000
C1757       C  0.40178445  0.98165135  0.77702782    -0.01100
C1758       C  0.39470548  0.95093339  0.77477719     0.03900
C1759       C  0.35860991  0.93363095  0.72945644     0.38500
C1760       C  0.41885575  0.49834242  0.79264657     0.38500
C1761       C  0.40360085  0.93619362  0.78827727     0.36900
C1762       C  0.37460117  0.99623784  0.73324322     0.36900
N1763       N  0.41106690  0.92465597  0.79898200    -0.37900
N1764       N  0.36927733  0.00841824  0.72185261    -0.37900
N1765       N  0.43054432  0.51104271  0.80559651    -0.37300
N1766       N  0.34659312  0.92041272  0.71669830    -0.37300
C1767       C  0.45516735  0.72212371  0.75040897    -0.04000
C1768       C  0.44744674  0.73242240  0.73485906    -0.01100
C1769       C  0.43983778  0.75584362  0.73574385     0.03900
C1770       C  0.43812433  0.76809036  0.75245470    -0.04000
C1771       C  0.44902661  0.75986737  0.76775647    -0.01100
C1772       C  0.45783206  0.73723550  0.76663109     0.03900
C1773       C  0.44667716  0.71833140  0.71791094     0.38500
C1774       C  0.45010272  0.77341374  0.78492091     0.38500
C1775       C  0.96776705  0.72814727  0.78249146     0.36900
C1776       C  0.43402386  0.76726040  0.71927565     0.36900
N1777       N  0.97593256  0.72117276  0.79513890    -0.37900
N1778       N  0.42945893  0.77634085  0.70612686    -0.37900
N1779       N  0.95118917  0.78415533  0.79866597    -0.37300
N1780       N  0.44593750  0.70702099  0.70441659    -0.37300
C1781       C  0.35733722  0.82091998  0.81833786    -0.04000
C1782       C  0.34001986  0.83436828  0.82444026    -0.01100
C1783       C  0.32048576  0.82247222  0.83946728     0.03900
C1784       C  0.31773454  0.79668264  0.84892993    -0.04000
C1785       C  0.33504189  0.78307564  0.84264594    -0.01100
C1786       C  0.35508194  0.79552505  0.82775591     0.03900
C1787       C  0.34178658  0.86054523  0.81504448     0.38500
C1788       C  0.33153680  0.75532311  0.85089073     0.38500
C1789       C  0.37221761  0.78108760  0.82159911     0.36900
C1790       C  0.30310357  0.83709902  0.84485542     0.36900
N1791       N  0.38590587  0.76954487  0.81676947    -0.37900
N1792       N  0.28907377  0.84869343  0.84892188    -0.37900
N1793       N  0.32880294  0.73314784  0.85735565    -0.37300
N1794       N  0.34254803  0.88110910  0.80759680    -0.37300
C1795       C  0.22271822  0.50410216  0.01901491    -0.04000
C1796       C  0.19589686  0.98351656  0.00909303    -0.01100
C1797       C  0.19610397  0.98470322  0.99025629     0.03900
C1798       C  0.22303565  0.50686572  0.98120023    -0.04000
C1799       C  0.24886434  0.52810350  0.99092326    -0.01100
C1800       C  0.24890207  0.52642101  0.00963851     0.03900
C1801       C  0.16890519  0.96039277  0.01846805     0.38500
C1802       C  0.27544048  0.55223059  0.98168144     0.38500
C1803       C  0.27623690  0.54780938  0.01917019     0.36900
C1804       C  0.16956584  0.96238681  0.98052162     0.36900
N1805       N  0.29832506  0.56479419  0.02655221    -0.37900
N1806       N  0.14841430  0.94449503  0.97277044    -0.37900
N1807       N  0.29656882  0.57152271  0.97433186    -0.37300
N1808       N  0.14737756  0.94197020  0.02596275    -0.37300
C1809       C  0.15787674  0.94846617  0.18194148    -0.04000
C1810       C  0.14177179  0.93861112  0.16574327    -0.01100
C1811       C  0.15791975  0.94499966  0.14935425     0.03900
C1812       C  0.19043608  0.96090875  0.14889986    -0.04000
C1813       C  0.20653270  0.96967632  0.16503419    -0.01100
C1814       C  0.19056428  0.96378372  0.18138448     0.03900
C1815       C  0.10854300  0.92327457  0.16573022     0.38500
C1816       C  0.23977402  0.98434127  0.16486411     0.38500
C1817       C  0.20846897  0.97386460  0.19754253     0.36900
C1818       C  0.14078291  0.93667168  0.13291107     0.36900
N1819       N  0.22345118  0.98265511  0.21013107    -0.37900
N1820       N  0.12663782  0.93004889  0.11996647    -0.37900
N1821       N  0.26667339  0.49650452  0.16493161    -0.37300
N1822       N  0.08203710  0.91104402  0.16568800    -0.37300
C1823       C  0.28105048  0.76984179  0.02001674    -0.04000
C1824       C  0.26372563  0.74400010  0.00909720    -0.01100
C1825       C  0.26042922  0.74760377  0.99073252     0.03900
C1826       C  0.27626291  0.77703177  0.98247669    -0.04000
C1827       C  0.29435163  0.80278879  0.99324031    -0.01100
C1828       C  0.29660942  0.79934317  0.01179587     0.03900
C1829       C  0.24974000  0.71310207  0.01648385     0.38500
C1830       C  0.30965612  0.83340121  0.98546308     0.38500
C1831       C  0.31453259  0.82662750  0.02229072     0.36900
C1832       C  0.24026280  0.72055055  0.98056471     0.36900
N1833       N  0.32892031  0.84854198  0.03056173    -0.37900
N1834       N  0.22360041  0.69888372  0.97269329    -0.37900
N1835       N  0.32183224  0.85779554  0.97932493    -0.37300
N1836       N  0.23863988  0.68847590  0.02224822    -0.37300
C1837       C  0.29072300  0.87036991  0.07838514    -0.04000
C1838       C  0.27788295  0.87658993  0.06336616    -0.01100
C1839       C  0.27187005  0.90116634  0.06357021     0.03900
C1840       C  0.27738783  0.91880197  0.07912840    -0.04000
C1841       C  0.29213389  0.91385405  0.09368878    -0.01100
C1842       C  0.29896032  0.88981095  0.09326352     0.03900
C1843       C  0.26847285  0.85612908  0.04824911     0.38500
C1844       C  0.29961611  0.93303459  0.10929852     0.38500
C1845       C  0.31202186  0.88338690  0.10875562     0.36900
C1846       C  0.25775190  0.90666150  0.04824055     0.36900
N1847       N  0.32235545  0.87816106  0.12110968    -0.37900
N1848       N  0.24658319  0.91110953  0.03599972    -0.37900
N1849       N  0.30559573  0.94831337  0.12176376    -0.37300
N1850       N  0.26051195  0.83970645  0.03624200    -0.37300
C1851       C  0.23131779  0.64591968  0.09724736    -0.04000
C1852       C  0.24007359  0.63380719  0.11169522    -0.01100
C1853       C  0.23221635  0.60260329  0.11193072     0.03900
C1854       C  0.21742817  0.58341709  0.09716738    -0.04000
C1855       C  0.20581714  0.59458786  0.08371523    -0.01100
C1856       C  0.21193214  0.62527131  0.08406214     0.03900
C1857       C  0.25833401  0.65340405  0.12610096     0.38500
C1858       C  0.18852128  0.57516748  0.06901976     0.38500
C1859       C  0.19780774  0.63530460  0.07079908     0.36900
C1860       C  0.23932325  0.59031023  0.12758976     0.36900
N1861       N  0.18642854  0.64323001  0.06027195    -0.37900
N1862       N  0.24487618  0.58052974  0.14011040    -0.37900
N1863       N  0.17470484  0.55982291  0.05725557    -0.37300
N1864       N  0.27294193  0.66888102  0.13762380    -0.37300
C1865       C  0.43628724  0.87973948  0.23948438    -0.04000
C1866       C  0.44820832  0.86714710  0.25170268    -0.01100
C1867       C  0.47900839  0.87411990  0.25016439     0.03900
C1868       C  0.49824322  0.89438291  0.23663998    -0.04000
C1869       C  0.48553414  0.90489081  0.22355755    -0.01100
C1870       C  0.45450806  0.89728034  0.22488874     0.03900
C1871       C  0.42918052  0.84818287  0.26629788     0.38500
C1872       C  0.50486862  0.92541558  0.20953757     0.38500
C1873       C  0.44159319  0.90862469  0.21164910     0.36900
C1874       C  0.99110079  0.86079001  0.26268019     0.36900
N1875       N  0.43122525  0.91759961  0.20109074    -0.37900
N1876       N  0.00080102  0.85010251  0.27257481    -0.37900
N1877       N  0.52036988  0.94190492  0.19841059    -0.37300
N1878       N  0.41398305  0.83305333  0.27794769    -0.37300
C1879       C  0.26741990  0.93445907  0.24038480    -0.04000
C1880       C  0.26976509  0.95713060  0.25233083    -0.01100
C1881       C  0.24488644  0.96242579  0.25463760     0.03900
C1882       C  0.21754112  0.94468075  0.24519561    -0.04000
C1883       C  0.21606517  0.92346733  0.23237941    -0.01100
C1884       C  0.24090345  0.91834891  0.23000941     0.03900
C1885       C  0.29749313  0.97432377  0.26259077     0.38500
C1886       C  0.18869072  0.90650160  0.22172759     0.38500
C1887       C  0.23808701  0.89465418  0.21793971     0.36900
C1888       C  0.24749411  0.48482157  0.26777316     0.36900
N1889       N  0.23553915  0.87549632  0.20844860    -0.37900
N1890       N  0.24916848  0.50269164  0.27800751    -0.37900
N1891       N  0.16693161  0.89304018  0.21321013    -0.37300
N1892       N  0.32021286  0.48763253  0.27109160    -0.37300
C1893       C  0.29193701  0.80959045  0.15039035    -0.04000
C1894       C  0.28194110  0.83046889  0.15562262    -0.01100
C1895       C  0.29593909  0.85084700  0.16999575     0.03900
C1896       C  0.31862594  0.84942958  0.18030133    -0.04000
C1897       C  0.32910718  0.82920082  0.17498214    -0.01100
C1898       C  0.31639162  0.80994625  0.16007728     0.03900
C1899       C  0.25664660  0.83088755  0.14664569     0.38500
C1900       C  0.35384211  0.82866859  0.18462697     0.38500
C1901       C  0.32957750  0.79126285  0.15463528     0.36900
C1902       C  0.28663463  0.87317917  0.17419525     0.36900
N1903       N  0.34030218  0.77654241  0.15035040    -0.37900
N1904       N  0.27957863  0.89136882  0.17724209    -0.37900
N1905       N  0.37344998  0.82812228  0.19232905    -0.37300
N1906       N  0.23647977  0.83138179  0.13958853    -0.37300
C1907       C  0.12490519  0.54152164  0.24348055    -0.04000
C1908       C  0.11787972  0.55288032  0.25880593    -0.01100
C1909       C  0.11068848  0.57654502  0.25748113     0.03900
C1910       C  0.11100274  0.58991904  0.24064361    -0.04000
C1911       C  0.12009425  0.57975374  0.22540506    -0.01100
C1912       C  0.12702309  0.55568563  0.22684983     0.03900
C1913       C  0.11760589  0.53970446  0.27612442     0.38500
C1914       C  0.12240599  0.59390597  0.20818943     0.38500
C1915       C  0.13511558  0.54465775  0.21109379     0.36900
C1916       C  0.10143844  0.58563110  0.27363752     0.36900
N1917       N  0.14166854  0.53592028  0.19852865    -0.37900
N1918       N  0.09418309  0.59277652  0.28658047    -0.37900
N1919       N  0.12424745  0.60512893  0.19442180    -0.37300
N1920       N  0.11737374  0.52914028  0.28987721    -0.37300
C1921       C  0.04428079  0.75268457  0.24875762    -0.04000
C1922       C  0.05005092  0.76935741  0.26458985    -0.01100
C1923       C  0.05767926  0.80045020  0.26397352     0.03900
C1924       C  0.06090741  0.81539911  0.24731949    -0.04000
C1925       C  0.04995374  0.79691303  0.23186522    -0.01100
C1926       C  0.04192728  0.76573917  0.23264975     0.03900
C1927       C  0.04988812  0.75492137  0.28137954     0.38500
C1928       C  0.04776097  0.80964713  0.21493893     0.38500
C1929       C  0.53311178  0.74742602  0.21660476     0.36900
C1930       C  0.06200331  0.81673957  0.28054076     0.36900
N1931       N  0.52600573  0.73279565  0.20383646    -0.37900
N1932       N  0.06519749  0.82961503  0.29377651    -0.37900
N1933       N  0.54567813  0.81954266  0.20141193    -0.37300
N1934       N  0.04970759  0.74332578  0.29475245    -0.37300
C1935       C  0.42345217  0.50595432  0.23440060    -0.04000
C1936       C  0.45402201  0.51271288  0.23654506    -0.01100
C1937       C  0.47767333  0.54319440  0.23807411     0.03900
C1938       C  0.47124526  0.56761123  0.23715854    -0.04000
C1939       C  0.44065595  0.56094627  0.23481684    -0.01100
C1940       C  0.41678000  0.53010008  0.23330869     0.03900
C1941       C  0.46072673  0.98811197  0.23726958     0.38500
C1942       C  0.43376532  0.58568127  0.23389952     0.38500
C1943       C  0.38532745  0.52313209  0.23117362     0.36900
C1944       C  0.00860068  0.54908613  0.24137951     0.36900
N1945       N  0.36020729  0.51750672  0.22941329    -0.37900
N1946       N  0.03309283  0.55343374  0.24401418    -0.37900
N1947       N  0.42822268  0.60541851  0.23325474    -0.37300
N1948       N  0.46659482  0.96860459  0.23792586    -0.37300
C1949       C  0.24804544  0.78932316  0.25238790    -0.04000
C1950       C  0.23806861  0.77023098  0.23726400    -0.01100
C1951       C  0.20676516  0.74825844  0.23541925     0.03900
C1952       C  0.18545018  0.74554710  0.24855776    -0.04000
C1953       C  0.19559717  0.76338034  0.26407046    -0.01100
C1954       C  0.22683000  0.78483120  0.26612364     0.03900
C1955       C  0.25944953  0.77444242  0.22304143     0.38500
C1956       C  0.17357362  0.76111504  0.27742142     0.38500
C1957       C  0.23693421  0.80307105  0.28218779     0.36900
C1958       C  0.19638679  0.72863861  0.21994321     0.36900
N1959       N  0.24485819  0.81767692  0.29495702    -0.37900
N1960       N  0.18808553  0.71291258  0.20762948    -0.37900
N1961       N  0.15597956  0.75955787  0.28794543    -0.37300
N1962       N  0.27641996  0.77774354  0.21165775    -0.37300
C1963       C  0.00690555  0.73270660  0.97824988    -0.04000
C1964       C  0.98738288  0.70412544  0.98671898    -0.01100
C1965       C  0.98612007  0.70174528  0.00545636     0.03900
C1966       C  0.00374881  0.72792316  0.01586370    -0.04000
C1967       C  0.52270136  0.75649148  0.00752388    -0.01100
C1968       C  0.52472322  0.75883648  0.98886436     0.03900
C1969       C  0.96762415  0.67725256  0.97632521     0.38500
C1970       C  0.53942027  0.78388481  0.01819606     0.38500
C1971       C  0.54571084  0.78830146  0.98076008     0.36900
C1972       C  0.96716808  0.67219401  0.01402404     0.36900
N1973       N  0.56238401  0.81185420  0.97436777    -0.37900
N1974       N  0.95214550  0.64859956  0.02083620    -0.37900
N1975       N  0.55255428  0.80567301  0.02673068    -0.37300
N1976       N  0.95174949  0.65577201  0.96810746    -0.37300
C1977       C  0.15575592  0.71680165  0.08360510    -0.04000
C1978       C  0.14305117  0.71508955  0.06659925    -0.01100
C1979       C  0.11206201  0.70702795  0.06506195     0.03900
C1980       C  0.09356682  0.70030185  0.08042579    -0.04000
C1981       C  0.10540342  0.69888264  0.09719328    -0.01100
C1982       C  0.13655351  0.70736273  0.09879388     0.03900
C1983       C  0.16227365  0.72381144  0.05074824     0.38500
C1984       C  0.08622599  0.69086597  0.11300231     0.38500
C1985       C  0.14897851  0.70690207  0.11610389     0.36900
C1986       C  0.09946764  0.70703739  0.04771969     0.36900
N1987       N  0.15891688  0.70654650  0.12990167    -0.37900
N1988       N  0.08942495  0.70711531  0.03391078    -0.37900
N1989       N  0.07111948  0.68439114  0.12569636    -0.37300
N1990       N  0.17760171  0.73075601  0.03812209    -0.37300
C1991       C  0.42217527  0.75229323  0.09456512    -0.04000
C1992       C  0.39183084  0.72779112  0.09341044    -0.01100
C1993       C  0.36718774  0.73350568  0.09271709     0.03900
C1994       C  0.37244466  0.76390149  0.09375413    -0.04000
C1995       C  0.40287482  0.78848564  0.09521808    -0.01100
C1996       C  0.42770437  0.78265569  0.09559183     0.03900
C1997       C  0.38587487  0.69640207  0.09294079     0.38500
C1998       C  0.40867878  0.81967198  0.09647649     0.38500
C1999       C  0.45895385  0.80785953  0.09649854     0.36900
C2000       C  0.33648089  0.70789121  0.08998768     0.36900
N2001       N  0.48392526  0.82792932  0.09722970    -0.37900
N2002       N  0.31214686  0.68736850  0.08772089    -0.37900
N2003       N  0.41338567  0.84460780  0.09745618    -0.37300
N2004       N  0.38100046  0.67136582  0.09267173    -0.37300
C2005       C  0.08115987  0.83504642  0.08688717    -0.04000
C2006       C  0.10886250  0.84304974  0.09542805    -0.01100
C2007       C  0.13288713  0.87342865  0.09491752     0.03900
C2008       C  0.13007236  0.89597777  0.08491034    -0.04000
C2009       C  0.10168641  0.88817439  0.07698796    -0.01100
C2010       C  0.07728250  0.85753060  0.07783697     0.03900
C2011       C  0.11356476  0.81943350  0.10360950     0.38500
C2012       C  0.09789931  0.91114566  0.06741266     0.38500
C2013       C  0.04886251  0.84872715  0.06861382     0.36900
C2014       C  0.16062454  0.88092334  0.10466861     0.36900
N2015       N  0.02626734  0.84162228  0.06112646    -0.37900
N2016       N  0.18245767  0.88606778  0.11245198    -0.37900
N2017       N  0.09473582  0.92949251  0.05986526    -0.37300
N2018       N  0.11765366  0.80063399  0.10975919    -0.37300
C2019       C  0.40650030  0.61574423  0.08268565    -0.04000
C2020       C  0.38278092  0.61471561  0.07194488    -0.01100
C2021       C  0.35203627  0.59368985  0.07580714     0.03900
C2022       C  0.34443111  0.57040938  0.08857062    -0.04000
C2023       C  0.36779725  0.56906573  0.09810104    -0.01100
C2024       C  0.39880746  0.59188053  0.09536616     0.03900
C2025       C  0.38953861  0.63464157  0.05648810     0.38500
C2026       C  0.35990961  0.54403145  0.11052916     0.38500
C2027       C  0.42244176  0.59003674  0.10533980     0.36900
C2028       C  0.32796958  0.59695057  0.06716640     0.36900
N2029       N  0.44118202  0.58810903  0.11317527    -0.37900
N2030       N  0.30879547  0.59988660  0.06060989    -0.37900
N2031       N  0.35359560  0.52402496  0.12042754    -0.37300
N2032       N  0.39474389  0.65037491  0.04414568    -0.37300
C2033       C  0.05267235  0.68940937  0.17891932    -0.04000
C2034       C  0.02430559  0.66667367  0.17184518    -0.01100
C2035       C  0.01122510  0.67339817  0.15709361     0.03900
C2036       C  0.02611912  0.70282638  0.14906146    -0.04000
C2037       C  0.05369517  0.72590957  0.15652202    -0.01100
C2038       C  0.06714717  0.71917167  0.17110150     0.03900
C2039       C  0.50765997  0.63646843  0.18002893     0.38500
C2040       C  0.06870487  0.75667147  0.14907173     0.38500
C2041       C  0.09647279  0.74295568  0.17767575     0.36900
C2042       C  0.48156643  0.65020226  0.15057879     0.36900
N2043       N  0.11983959  0.76198480  0.18288833    -0.37900
N2044       N  0.45779747  0.63181481  0.14548692    -0.37900
N2045       N  0.08055762  0.78140111  0.14340468    -0.37300
N2046       N  0.49426048  0.61233082  0.18647761    -0.37300
C2047       C  0.39051942  0.83677980  0.64593451    -0.04000
C2048       C  0.41717594  0.84301147  0.65588395    -0.01100
C2049       C  0.41719251  0.84479551  0.67459365     0.03900
C2050       C  0.39110578  0.84084806  0.68380721    -0.04000
C2051       C  0.36468715  0.83491733  0.67429330    -0.01100
C2052       C  0.36419379  0.83269599  0.65549898     0.03900
C2053       C  0.44508909  0.84760943  0.64727295     0.38500
C2054       C  0.33794115  0.83110475  0.68394079     0.38500
C2055       C  0.33607038  0.82531189  0.64631785     0.36900
C2056       C  0.44408387  0.84998486  0.68453958     0.36900
N2057       N  0.31349698  0.81938330  0.63913065    -0.37900
N2058       N  0.46541211  0.85391399  0.69245394    -0.37900
N2059       N  0.31668159  0.82820736  0.69165501    -0.37300
N2060       N  0.46740407  0.85102708  0.64063749    -0.37300
C2061       C  0.33895452  0.89936021  0.35043903    -0.04000
C2062       C  0.32769863  0.87156958  0.34109469    -0.01100
C2063       C  0.33139021  0.87194214  0.32245411     0.03900
C2064       C  0.34652890  0.90008093  0.31303632    -0.04000
C2065       C  0.35863334  0.92789460  0.32241512    -0.01100
C2066       C  0.35482978  0.92755500  0.34104495     0.03900
C2067       C  0.31329220  0.84261330  0.35072460     0.38500
C2068       C  0.37386859  0.95688232  0.31281073     0.38500
C2069       C  0.36631562  0.95630450  0.35045628     0.36900
C2070       C  0.32018143  0.84333788  0.31294387     0.36900
N2071       N  0.37545236  0.97922000  0.35796066    -0.37900
N2072       N  0.31140271  0.82059222  0.30530860    -0.37900
N2073       N  0.38598560  0.98000425  0.30515748    -0.37300
N2074       N  0.30195841  0.81953676  0.35843072    -0.37300
C2075       C  0.37827228  0.85228298  0.51255614    -0.04000
C2076       C  0.38637143  0.84639188  0.49575881    -0.01100
C2077       C  0.37452850  0.85240589  0.48011985     0.03900
C2078       C  0.35577104  0.86648836  0.48096788    -0.04000
C2079       C  0.34805459  0.87258640  0.49801678    -0.01100
C2080       C  0.35798690  0.86414026  0.51359741     0.03900
C2081       C  0.40726782  0.83437016  0.49457489     0.38500
C2082       C  0.32918135  0.88678738  0.49973990     0.38500
C2083       C  0.34576575  0.86594982  0.53078143     0.36900
C2084       C  0.38202091  0.84367194  0.46328121     0.36900
N2085       N  0.33558491  0.86696054  0.54442408    -0.37900
N2086       N  0.38787163  0.83591929  0.45008176    -0.37900
N2087       N  0.31436845  0.89838695  0.50123506    -0.37300
N2088       N  0.42401766  0.82490082  0.49363194    -0.37300
C2089       C  0.16772562  0.56901975  0.64717455    -0.04000
C2090       C  0.18426021  0.55848344  0.65729868    -0.01100
C2091       C  0.18313842  0.55868968  0.67605699     0.03900
C2092       C  0.16545263  0.56950879  0.68490126    -0.04000
C2093       C  0.14870425  0.57983127  0.67473351    -0.01100
C2094       C  0.14962459  0.57933935  0.65597602     0.03900
C2095       C  0.20142283  0.54616657  0.64841984     0.38500
C2096       C  0.13168368  0.59242702  0.68350750     0.38500
C2097       C  0.13253438  0.59032210  0.64573523     0.36900
C2098       C  0.19962951  0.54693731  0.68621352     0.36900
N2099       N  0.11882353  0.59895711  0.63756396    -0.37900
N2100       N  0.21282636  0.53759384  0.69428379    -0.37900
N2101       N  0.11823776  0.60261327  0.69049652    -0.37300
N2102       N  0.21499503  0.53621161  0.64134431    -0.37300
C2103       C  0.07837704  0.95431955  0.58578411    -0.04000
C2104       C  0.06849037  0.93640256  0.57022022    -0.01100
C2105       C  0.03736051  0.91374780  0.56842307     0.03900
C2106       C  0.01618186  0.90895168  0.58218057    -0.04000
C2107       C  0.02688367  0.92465424  0.59845076    -0.01100
C2108       C  0.05793997  0.94695855  0.60029011     0.03900
C2109       C  0.08983272  0.94239967  0.55566270     0.38500
C2110       C  0.00564439  0.91969239  0.61291676     0.38500
C2111       C  0.06877485  0.96320047  0.61697510     0.36900
C2112       C  0.02710850  0.89548294  0.55242161     0.36900
N2113       N  0.07747713  0.97615495  0.63025401    -0.37900
N2114       N  0.01898864  0.88081448  0.53968272    -0.37900
N2115       N  0.48880952  0.91602667  0.62444865    -0.37300
N2116       N  0.10689207  0.94708200  0.54408369    -0.37300
C2117       C  0.29154364  0.74209865  0.57275092    -0.04000
C2118       C  0.27549084  0.72735612  0.58849320    -0.01100
C2119       C  0.25092386  0.69683124  0.58798924     0.03900
C2120       C  0.24338551  0.67986487  0.57192501    -0.04000
C2121       C  0.25804523  0.69541542  0.55596737    -0.01100
C2122       C  0.28140816  0.72652489  0.55635905     0.03900
C2123       C  0.28564707  0.74260460  0.60547612     0.38500
C2124       C  0.25058280  0.67920609  0.53920324     0.38500
C2125       C  0.29543513  0.74246838  0.53980116     0.36900
C2126       C  0.23343486  0.68300354  0.60415779     0.36900
N2127       N  0.30657611  0.75526386  0.52662280    -0.37900
N2128       N  0.21943755  0.67206600  0.61704009    -0.37900
N2129       N  0.24479578  0.66636494  0.52579939    -0.37300
N2130       N  0.29389491  0.75458525  0.61905750    -0.37300
C2131       C  0.10993787  0.94128586  0.35177119    -0.04000
C2132       C  0.08221174  0.92953500  0.34209103    -0.01100
C2133       C  0.08236489  0.92771424  0.32337876     0.03900
C2134       C  0.11020672  0.93823192  0.31395428    -0.04000
C2135       C  0.13799247  0.95066999  0.32346047    -0.01100
C2136       C  0.13787473  0.95192603  0.34226252     0.03900
C2137       C  0.05323651  0.91956030  0.35124588     0.38500
C2138       C  0.16686717  0.96281017  0.31386990     0.38500
C2139       C  0.16649578  0.96303459  0.35174657     0.36900
C2140       C  0.05351492  0.91378292  0.31385864     0.36900
N2141       N  0.18910095  0.46790660  0.35983921    -0.37900
N2142       N  0.03056564  0.90261024  0.30624307    -0.37900
N2143       N  0.19015285  0.46855279  0.30675744    -0.37300
N2144       N  0.03005984  0.91149987  0.35846286    -0.37300
C2145       C  0.48548587  0.89573424  0.42087738    -0.04000
C2146       C  0.47164719  0.90486820  0.43422511    -0.01100
C2147       C  0.44154764  0.89923392  0.43210060     0.03900
C2148       C  0.42410700  0.88274654  0.41729579    -0.04000
C2149       C  0.43611844  0.87025130  0.40517219    -0.01100
C2150       C  0.46651801  0.87615828  0.40707497     0.03900
C2151       C  0.98783354  0.91993778  0.45034843     0.38500
C2152       C  0.41801054  0.85336032  0.38997361     0.38500
C2153       C  0.47769260  0.86181623  0.39471054     0.36900
C2154       C  0.42882527  0.91150207  0.44495431     0.36900
N2155       N  0.48628734  0.85001145  0.38489964    -0.37900
N2156       N  0.41885474  0.92144166  0.45515467    -0.37900
N2157       N  0.40364757  0.84015275  0.37777202    -0.37300
N2158       N  0.00043349  0.93181482  0.46328761    -0.37300
C2159       C  0.20753878  0.94721155  0.42240512    -0.04000
C2160       C  0.20702742  0.92622347  0.40990828    -0.01100
C2161       C  0.22827150  0.91577589  0.41098455     0.03900
C2162       C  0.25207412  0.92803673  0.42383644    -0.04000
C2163       C  0.25348292  0.95044880  0.43576708    -0.01100
C2164       C  0.23062462  0.95912617  0.43543741     0.03900
C2165       C  0.18347820  0.91417695  0.39633061     0.38500
C2166       C  0.27873001  0.96520501  0.44808853     0.38500
C2167       C  0.23050997  0.97992316  0.44867135     0.36900
C2168       C  0.22417752  0.89103152  0.39935023     0.36900
N2169       N  0.23035644  0.99641480  0.45929831    -0.37900
N2170       N  0.22075575  0.87126509  0.39009203    -0.37900
N2171       N  0.29903249  0.97716937  0.45781754    -0.37300
N2172       N  0.16479119  0.90474139  0.38549564    -0.37300
C2173       C  0.12284030  0.98008546  0.48497606    -0.04000
C2174       C  0.10999924  0.49991007  0.49041424    -0.01100
C2175       C  0.12329479  0.52069742  0.50464357     0.03900
C2176       C  0.14864519  0.52279011  0.51382953    -0.04000
C2177       C  0.16138380  0.00270466  0.50868476    -0.01100
C2178       C  0.14842181  0.98227096  0.49426231     0.03900
C2179       C  0.08247787  0.49697638  0.48235134     0.38500
C2180       C  0.18834038  0.00541357  0.51741988     0.38500
C2181       C  0.16184617  0.96366634  0.48918194     0.36900
C2182       C  0.11043289  0.53967792  0.50996235     0.36900
N2183       N  0.17254188  0.94872437  0.48532413    -0.37900
N2184       N  0.10042135  0.55514353  0.51396175    -0.37900
N2185       N  0.20987126  0.00766928  0.52434394    -0.37300
N2186       N  0.06064930  0.49493564  0.47595862    -0.37300
C2187       C  0.05689033  0.66147067  0.34968931    -0.04000
C2188       C  0.02959749  0.64840867  0.33973209    -0.01100
C2189       C  0.03070196  0.64797712  0.32090652     0.03900
C2190       C  0.05928174  0.66059037  0.31175558    -0.04000
C2191       C  0.08663606  0.67369120  0.32196453    -0.01100
C2192       C  0.08534094  0.67410365  0.34070605     0.03900
C2193       C  0.00029068  0.63602862  0.34886518     0.38500
C2194       C  0.11657502  0.68719422  0.31343592     0.38500
C2195       C  0.11355771  0.68681744  0.35083585     0.36900
C2196       C  0.00215702  0.63372097  0.31113645     0.36900
N2197       N  0.13598068  0.69693293  0.35893453    -0.37900
N2198       N  0.97933332  0.62237141  0.30339210    -0.37900
N2199       N  0.14055955  0.69771531  0.30681936    -0.37300
N2200       N  0.97690663  0.62621811  0.35613199    -0.37300
C2201       C  0.12176186  0.54877274  0.41483946    -0.04000
C2202       C  0.11374157  0.55909401  0.39946385    -0.01100
C2203       C  0.10485303  0.58160770  0.40073952     0.03900
C2204       C  0.10205721  0.59258687  0.41767588    -0.04000
C2205       C  0.11316179  0.58428830  0.43283184    -0.01100
C2206       C  0.12359224  0.56300494  0.43123831     0.03900
C2207       C  0.11300987  0.54521759  0.38246738     0.38500
C2208       C  0.11219829  0.59582173  0.45033433     0.38500
C2209       C  0.13495291  0.55449676  0.44670447     0.36900
C2210       C  0.09848773  0.59316450  0.38452067     0.36900
N2211       N  0.14447722  0.54805018  0.45895694    -0.37900
N2212       N  0.09351515  0.60244341  0.37158126    -0.37900
N2213       N  0.11145032  0.60487019  0.46434617    -0.37300
N2214       N  0.11283232  0.03439398  0.36933735    -0.37300
C2215       C  0.06949131  0.82473980  0.42278543    -0.04000
C2216       C  0.05698188  0.80422648  0.43738924    -0.01100
C2217       C  0.04768241  0.77280738  0.43532511     0.03900
C2218       C  0.05097284  0.76170066  0.41867096    -0.04000
C2219       C  0.06232347  0.78192729  0.40395694    -0.01100
C2220       C  0.07207130  0.81321900  0.40602300     0.03900
C2221       C  0.05350997  0.81525967  0.45453765     0.38500
C2222       C  0.06403515  0.77049525  0.38650563     0.38500
C2223       C  0.08599273  0.83361087  0.39082160     0.36900
C2224       C  0.03574661  0.75219895  0.45053254     0.36900
N2225       N  0.09693080  0.84966988  0.37864075    -0.37900
N2226       N  0.52611124  0.73573436  0.46264868    -0.37900
N2227       N  0.06542633  0.76140206  0.37262214    -0.37300
N2228       N  0.05082822  0.82402708  0.46825936    -0.37300
C2229       C  0.23219639  0.78944101  0.42146441    -0.04000
C2230       C  0.21094346  0.79287054  0.43229459    -0.01100
C2231       C  0.18035326  0.76867053  0.43419698     0.03900
C2232       C  0.17060380  0.74066545  0.42537197    -0.04000
C2233       C  0.19216381  0.73666463  0.41524788    -0.01100
C2234       C  0.22286675  0.76087304  0.41338952     0.03900
C2235       C  0.22047226  0.82162130  0.44135353     0.38500
C2236       C  0.18244283  0.70775190  0.40636807     0.38500
C2237       C  0.24434259  0.75693542  0.40235925     0.36900
C2238       C  0.15835445  0.77331728  0.44429179     0.36900
N2239       N  0.26147688  0.75380671  0.39352425    -0.37900
N2240       N  0.14072537  0.77703415  0.45224460    -0.37900
N2241       N  0.17454205  0.68463281  0.39931089    -0.37300
N2242       N  0.22808828  0.84454230  0.44858065    -0.37300
C2243       C  0.39945202  0.51063827  0.42641953    -0.04000
C2244       C  0.42351640  0.52345167  0.43879400    -0.01100
C2245       C  0.44711991  0.55410134  0.43673433     0.03900
C2246       C  0.44661493  0.57223553  0.42242616    -0.04000
C2247       C  0.42085030  0.56053055  0.41128024    -0.01100
C2248       C  0.39737573  0.52963213  0.41317890     0.03900
C2249       C  0.42552040  0.50440656  0.45269648     0.38500
C2250       C  0.41938582  0.57964880  0.39726875     0.38500
C2251       C  0.37157578  0.51697458  0.40113348     0.36900
C2252       C  0.47299415  0.56645063  0.44876139     0.36900
N2253       N  0.35048091  0.00659370  0.39146832    -0.37900
N2254       N  0.99363322  0.57612290  0.45832312    -0.37900
N2255       N  0.41807988  0.59491328  0.38612498    -0.37300
N2256       N  0.42726914  0.48929483  0.46377401    -0.37300
C2257       C  0.43449914  0.60241975  0.65093950    -0.04000
C2258       C  0.46288993  0.61599490  0.65986236    -0.01100
C2259       C  0.46373952  0.61740099  0.67859994     0.03900
C2260       C  0.43620264  0.60519669  0.68853276    -0.04000
C2261       C  0.40779379  0.59147858  0.67961383    -0.01100
C2262       C  0.40695607  0.59026376  0.66088567     0.03900
C2263       C  0.49132706  0.62957599  0.64972535     0.38500
C2264       C  0.37929607  0.57749338  0.68973655     0.38500
C2265       C  0.37762607  0.57560254  0.65191904     0.36900
C2266       C  0.49301199  0.63236860  0.68761934     0.36900
N2267       N  0.35414175  0.56390301  0.64487500    -0.37900
N2268       N  0.01633815  0.64435167  0.69482907    -0.37900
N2269       N  0.35661988  0.56625838  0.69783286    -0.37300
N2270       N  0.01395776  0.64047051  0.64160226    -0.37300
C2271       C  0.43291795  0.75507735  0.57795519    -0.04000
C2272       C  0.42746577  0.73932406  0.59446046    -0.01100
C2273       C  0.43692570  0.71760870  0.59700726     0.03900
C2274       C  0.45036366  0.70998413  0.58284920    -0.04000
C2275       C  0.45721250  0.72663570  0.56665713    -0.01100
C2276       C  0.44856840  0.74921063  0.56424028     0.03900
C2277       C  0.41065370  0.74410520  0.60870086     0.38500
C2278       C  0.47212018  0.71986916  0.55224097     0.38500
C2279       C  0.45599119  0.76650383  0.54770583     0.36900
C2280       C  0.43251195  0.70277778  0.61428901     0.36900
N2281       N  0.46189284  0.78034432  0.53452552    -0.37900
N2282       N  0.42902641  0.69095764  0.62803040    -0.37900
N2283       N  0.98412944  0.71458758  0.54073885    -0.37300
N2284       N  0.39725195  0.74779194  0.62006958    -0.37300
C2285       C  0.38300833  0.92761583  0.57669471    -0.04000
C2286       C  0.39369317  0.94614703  0.56117195    -0.01100
C2287       C  0.39901732  0.97632404  0.56133513     0.03900
C2288       C  0.39504472  0.98871681  0.57727607    -0.04000
C2289       C  0.38148609  0.96929595  0.59225506    -0.01100
C2290       C  0.37505355  0.93858757  0.59185782     0.03900
C2291       C  0.40132647  0.93516401  0.54519775     0.38500
C2292       C  0.37473477  0.98104282  0.60820114     0.38500
C2293       C  0.36240743  0.91908159  0.60746067     0.36900
C2294       C  0.41083155  0.99512454  0.54534873     0.36900
N2295       N  0.35221918  0.90344938  0.61987655    -0.37900
N2296       N  0.42006865  0.00993199  0.53255680    -0.37900
N2297       N  0.36816463  0.48970694  0.62086418    -0.37300
N2298       N  0.40817566  0.92759469  0.53227834    -0.37300
C2299       C  0.32511695  0.56595234  0.57336383    -0.04000
C2300       C  0.31279437  0.57591933  0.55973862    -0.01100
C2301       C  0.28210075  0.56930976  0.56092112     0.03900
C2302       C  0.26366470  0.55258316  0.57561471    -0.04000
C2303       C  0.27498083  0.54015383  0.58829281    -0.01100
C2304       C  0.30563874  0.54673297  0.58716673     0.03900
C2305       C  0.33208122  0.59458925  0.54512927     0.38500
C2306       C  0.25579239  0.02077153  0.60292295     0.38500
C2307       C  0.31718747  0.53384310  0.60031069     0.36900
C2308       C  0.26976286  0.58082157  0.54741444     0.36900
N2309       N  0.32634620  0.52346565  0.61075683    -0.37900
N2310       N  0.25980710  0.58992899  0.53667842    -0.37900
N2311       N  0.24004466  0.00554293  0.61437426    -0.37300
N2312       N  0.34744322  0.60943810  0.53344805    -0.37300
C2313       C  0.04260746  0.61296819  0.58156692    -0.04000
C2314       C  0.03921063  0.59079150  0.56887446    -0.01100
C2315       C  0.06332264  0.58494002  0.56560888     0.03900
C2316       C  0.09104047  0.60141289  0.57484451    -0.04000
C2317       C  0.09530950  0.62511825  0.58654134    -0.01100
C2318       C  0.07104537  0.63095728  0.58990105     0.03900
C2319       C  0.51066972  0.57374915  0.55920181     0.38500
C2320       C  0.12439481  0.64278923  0.59549020     0.38500
C2321       C  0.07475081  0.65409008  0.60262548     0.36900
C2322       C  0.05880233  0.56052039  0.55363297     0.36900
N2323       N  0.07772786  0.67253518  0.61281120    -0.37900
N2324       N  0.05480504  0.54080609  0.54418023    -0.37900
N2325       N  0.14767232  0.65689977  0.60255759    -0.37300
N2326       N  0.48791393  0.56030878  0.55153118    -0.37300
C2327       C  0.48377475  0.62589380  0.51773273    -0.04000
C2328       C  0.46671771  0.62095231  0.50204620    -0.01100
C2329       C  0.48146288  0.62833533  0.48519065     0.03900
C2330       C  0.01389485  0.64078612  0.48357598    -0.04000
C2331       C  0.03064108  0.64419815  0.49929338    -0.01100
C2332       C  0.01587500  0.63731974  0.51616622     0.03900
C2333       C  0.43390638  0.60937862  0.50318563     0.38500
C2334       C  0.06333725  0.65529837  0.49834256     0.38500
C2335       C  0.03425799  0.64229552  0.53192535     0.36900
C2336       C  0.46246383  0.62242675  0.46957870     0.36900
N2337       N  0.04949060  0.64692917  0.54430203    -0.37900
N2338       N  0.44691311  0.61770528  0.45733175    -0.37900
N2339       N  0.08937057  0.66388750  0.49769094    -0.37300
N2340       N  0.40776548  0.60014587  0.50406168    -0.37300
Zn2341     Zn  0.95090041  0.08032968  0.59738831     1.49700
Zn2342     Zn  0.97778057  0.14108062  0.57457287     1.49400
Zn2343     Zn  0.91699841  0.08109097  0.56188053     1.49100
Zn2344     Zn  0.91558095  0.11428054  0.59640967     1.49500
O2345       O  0.94054805  0.10433005  0.58224097    -1.82800
O2346       O  0.99299810  0.09100022  0.59068326    -0.73400
O2347       O  0.98340424  0.13962698  0.54828034    -0.73200
O2348       O  0.90554964  0.03725294  0.56580008    -0.72800
O2349       O  0.51572347  0.14065975  0.58349815    -0.73400
O2350       O  0.92362461  0.03577427  0.59249912    -0.73000
O2351       O  0.94287571  0.09719155  0.53877930    -0.73600
O2352       O  0.87186887  0.08813561  0.59000101    -0.73000
O2353       O  0.97434893  0.17924472  0.57914255    -0.73800
O2354       O  0.87508677  0.07842359  0.56145674    -0.73200
O2355       O  0.92708918  0.15678132  0.59052033    -0.73600
O2356       O  0.92087506  0.11115193  0.62272576    -0.73500
O2357       O  0.94905662  0.08846978  0.62341924    -0.73300
C2358       C  0.51653059  0.11589300  0.58587075     0.78500
C2359       C  0.96916870  0.12086682  0.53587607     0.79000
C2360       C  0.90829599  0.02234234  0.57872096     0.77900
C2361       C  0.85939275  0.07791551  0.57502061     0.78300
C2362       C  0.95071866  0.18034001  0.58442149     0.79400
C2363       C  0.93534892  0.10057396  0.63135008     0.78500
Zn2364     Zn  0.57947482  0.19699442  0.40381891     1.49700
Zn2365     Zn  0.51902516  0.16426265  0.42754628     1.49400
Zn2366     Zn  0.54001951  0.12680463  0.40422257     1.49100
Zn2367     Zn  0.58034070  0.16230701  0.43816299     1.49500
O2368       O  0.55469171  0.16252798  0.41874807    -1.82800
O2369       O  0.56946670  0.22945504  0.40969747    -0.73400
O2370       O  0.97837666  0.12660460  0.42019955    -0.73200
O2371       O  0.54086649  0.13641376  0.37791167    -0.72800
O2372       O  0.52434003  0.20691318  0.42377503    -0.73400
O2373       O  0.57221101  0.18681713  0.37774490    -0.73000
O2374       O  0.49760920  0.09692022  0.41218334    -0.73600
O2375       O  0.59283653  0.13042735  0.43230997    -0.73000
O2376       O  0.51627781  0.15783775  0.45364997    -0.73800
O2377       O  0.56665023  0.10815311  0.40795231    -0.73200
O2378       O  0.55494747  0.15142941  0.46198120    -0.73600
O2379       O  0.62211503  0.20304184  0.43798546    -0.73500
O2380       O  0.62415781  0.21475676  0.40920110    -0.73300
C2381       C  0.54752395  0.23079071  0.41731903     0.78500
C2382       C  0.97532558  0.10012771  0.41750712     0.79000
C2383       C  0.55616179  0.16173944  0.36952978     0.77900
C2384       C  0.58650676  0.11161000  0.41953341     0.78300
C2385       C  0.52970252  0.15098649  0.46555860     0.79400
C2386       C  0.63717519  0.21824778  0.42416912     0.78500
Zn2387     Zn  0.61516827  0.42118270  0.43987732     1.49700
Zn2388     Zn  0.57478340  0.40888012  0.40527128     1.49400
Zn2389     Zn  0.58215625  0.45755199  0.43175968     1.49100
Zn2390     Zn  0.63837510  0.47163592  0.40744762     1.49500
O2391       O  0.60351178  0.43970728  0.42082429    -1.82800
O2392       O  0.59106967  0.37370991  0.43820226    -0.73400
O2393       O  0.53192662  0.40051948  0.40867622    -0.73200
O2394       O  0.59799995  0.47104819  0.45617548    -0.72800
O2395       O  0.57226172  0.36975484  0.41107092    -0.73400
O2396       O  0.61698071  0.44151915  0.46406597    -0.73000
O2397       O  0.53652164  0.43009973  0.43125560    -0.73600
O2398       O  0.64054770  0.01346148  0.41160355    -0.73000
O2399       O  0.58714966  0.41912567  0.37981188    -0.73800
O2400       O  0.59240124  0.99618704  0.42080119    -0.73200
O2401       O  0.63104842  0.46321508  0.38070696    -0.73600
O2402       O  0.67678574  0.46879992  0.41391731    -0.73500
O2403       O  0.65816859  0.43182699  0.43468933    -0.73300
C2404       C  0.57783857  0.35778791  0.42439716     0.78500
C2405       C  0.51968768  0.40922119  0.42036214     0.79000
C2406       C  0.61153075  0.46327595  0.46753703     0.77900
C2407       C  0.61823361  0.01785331  0.41559367     0.78300
C2408       C  0.60970293  0.44141755  0.37192022     0.79400
C2409       C  0.67973378  0.45034080  0.42445849     0.78500
Zn2410     Zn  0.63417986  0.05135122  0.59342793     1.49700
Zn2411     Zn  0.66770770  0.08773005  0.55805109     1.49400
Zn2412     Zn  0.70471103  0.08688726  0.59263630     1.49100
Zn2413     Zn  0.66859794  0.02620593  0.57058282     1.49500
O2414       O  0.66903410  0.06336286  0.57829768    -1.95400
O2415       O  0.61408995  0.07571224  0.58814787    -0.73400
O2416       O  0.70502723  0.13148733  0.55916730    -0.73200
O2417       O  0.69521684  0.08142553  0.61920005    -0.72800
O2418       O  0.63170108  0.09527710  0.56119773    -0.73400
O2419       O  0.64439708  0.05636036  0.61916505    -0.73000
O2420       O  0.72313405  0.13112199  0.58606686    -0.73600
O2421       O  0.71017351  0.02947798  0.57349404    -0.73000
O2422       O  0.66169154  0.06377962  0.53443098    -0.73800
O2423       O  0.73607730  0.07497469  0.58660053    -0.73200
O2424       O  0.66051034  0.02167999  0.54475086    -0.73600
O2425       O  0.63222469  0.48721847  0.57965171    -0.73500
O2426       O  0.60422894  0.00764677  0.58954739    -0.73300
C2427       C  0.61420907  0.09080852  0.57455001     0.78500
C2428       C  0.72267382  0.14560998  0.57222933     0.79000
C2429       C  0.66959753  0.06895571  0.62747875     0.77900
C2430       C  0.73509213  0.05184820  0.57915075     0.78300
C2431       C  0.65813521  0.03695463  0.53197968     0.79400
C2432       C  0.60664237  0.48386426  0.58502795     0.78500
Zn2433     Zn  0.79775824  0.38328563  0.40391647     1.49700
Zn2434     Zn  0.86649798  0.42011929  0.40563786     1.49400
Zn2435     Zn  0.82982864  0.41585456  0.44035283     1.49100
Zn2436     Zn  0.83081630  0.35616147  0.42513156     1.49500
O2437       O  0.83110643  0.39382869  0.41931914    -1.82800
O2438       O  0.80975201  0.38587284  0.37762650    -0.73400
O2439       O  0.88232926  0.46400890  0.41136531    -0.73200
O2440       O  0.78903610  0.41697209  0.43887538    -0.72800
O2441       O  0.86026329  0.41485432  0.37948488    -0.73400
O2442       O  0.78247708  0.41179548  0.40945330    -0.73000
O2443       O  0.86261414  0.46132158  0.43828076    -0.73600
O2444       O  0.83996036  0.35699613  0.45080778    -0.73000
O2445       O  0.89714961  0.40874280  0.41208091    -0.73800
O2446       O  0.83979649  0.39701333  0.46290903    -0.73200
O2447       O  0.86923492  0.35770930  0.41462857    -0.73600
O2448       O  0.78756911  0.31807076  0.42204450    -0.73500
O2449       O  0.76359516  0.34119563  0.41051364    -0.73300
C2450       C  0.83621140  0.40021689  0.37028624     0.78500
C2451       C  0.88003096  0.47685410  0.42532836     0.79000
C2452       C  0.77607245  0.41874284  0.42453618     0.77900
C2453       C  0.84424401  0.37395682  0.46415597     0.78300
C2454       C  0.89508482  0.38268307  0.41414965     0.79400
C2455       C  0.76286191  0.31770693  0.41749629     0.78500
Zn2456     Zn  0.92294029  0.37329817  0.56399759     1.49700
Zn2457     Zn  0.88662646  0.30359161  0.55883287     1.49400
Zn2458     Zn  0.92571947  0.33227133  0.59334405     1.49100
Zn2459     Zn  0.86438111  0.33434786  0.58910731     1.49500
O2460       O  0.89917024  0.33542327  0.57655590    -1.82800
O2461       O  0.90786148  0.36944165  0.53890535    -0.73400
O2462       O  0.91089621  0.28085294  0.56132546    -0.73200
O2463       O  0.96871772  0.36628799  0.59118677    -0.72800
O2464       O  0.88333032  0.31931452  0.53406872    -0.73400
O2465       O  0.96906078  0.39108123  0.56660218    -0.73000
O2466       O  0.92770246  0.29511433  0.58891998    -0.73600
O2467       O  0.87045807  0.33536003  0.61628208    -0.73000
O2468       O  0.84369077  0.27240912  0.56446574    -0.73800
O2469       O  0.91203936  0.33145167  0.61818029    -0.73200
O2470       O  0.82494623  0.29393280  0.58273321    -0.73600
O2471       O  0.86364495  0.37371400  0.58255220    -0.73500
O2472       O  0.91232017  0.40301575  0.57374139    -0.73300
C2473       C  0.89118759  0.34661487  0.52914075     0.78500
C2474       C  0.92303335  0.27796875  0.57561630     0.79000
C2475       C  0.98304885  0.38700747  0.57954035     0.77900
C2476       C  0.89069125  0.33376784  0.62573160     0.78300
C2477       C  0.82151232  0.27131178  0.57325634     0.79400
C2478       C  0.88635097  0.39974234  0.57797475     0.78500
Zn2479     Zn  0.53896197  0.24221473  0.06932022     1.49700
Zn2480     Zn  0.96940347  0.21097853  0.07025803     1.49400
Zn2481     Zn  0.50257867  0.18332894  0.09346798     1.49100
Zn2482     Zn  0.50529389  0.24701872  0.10422874     1.49500
O2483       O  0.50411733  0.22085589  0.08469412    -1.82800
O2484       O  0.52859902  0.23628885  0.04364751    -0.73400
O2485       O  0.93903389  0.16821192  0.07528697    -0.73200
O2486       O  0.53964676  0.18052191  0.08517488    -0.72800
O2487       O  0.97806928  0.21558115  0.04388188    -0.73400
O2488       O  0.56823865  0.22766885  0.07404979    -0.73000
O2489       O  0.96097371  0.14513552  0.08885891    -0.73600
O2490       O  0.51476848  0.23198932  0.12771101    -0.73000
O2491       O  0.94913240  0.23457092  0.07739252    -0.73800
O2492       O  0.50942396  0.18705796  0.11966912    -0.73200
O2493       O  0.96585866  0.24959406  0.10494949    -0.73600
O2494       O  0.53904420  0.29036511  0.09929599    -0.73500
O2495       O  0.55969052  0.28689621  0.07373945    -0.73300
C2496       C  0.00338047  0.22616613  0.03550534     0.78500
C2497       C  0.93734433  0.14425705  0.08203591     0.79000
C2498       C  0.56527889  0.20241594  0.07960188     0.77900
C2499       C  0.51553727  0.20747136  0.13135573     0.78300
C2500       C  0.94760400  0.24584444  0.09220124     0.79400
C2501       C  0.55794247  0.30252483  0.08642421     0.78500
Zn2502     Zn  0.59131515  0.20715903  0.23207821     1.49700
Zn2503     Zn  0.53417523  0.16180625  0.25546028     1.49400
Zn2504     Zn  0.56245873  0.13857673  0.22378271     1.49100
Zn2505     Zn  0.59868607  0.16487612  0.25927757     1.49500
O2506       O  0.57100628  0.16746370  0.24290020    -1.82800
O2507       O  0.57697086  0.23305528  0.24352217    -0.73400
O2508       O  0.99762545  0.11965351  0.24857423    -0.73200
O2509       O  0.56014060  0.15646652  0.19961518    -0.72800
O2510       O  0.52852451  0.19913531  0.25075663    -0.73400
O2511       O  0.57704667  0.20474722  0.20707278    -0.73000
O2512       O  0.52027814  0.10528046  0.22824475    -0.73600
O2513       O  0.60490883  0.13011000  0.25311894    -0.73000
O2514       O  0.54045838  0.16159806  0.28235024    -0.73800
O2515       O  0.58817744  0.11683412  0.22559976    -0.73200
O2516       O  0.58382404  0.16060030  0.28446690    -0.73600
O2517       O  0.64006392  0.20181454  0.25763665    -0.73500
O2518       O  0.63738533  0.22778382  0.23430434    -0.73300
C2519       C  0.54997458  0.22668877  0.24787049     0.78500
C2520       C  0.99728817  0.09964647  0.23794893     0.79000
C2521       C  0.56446354  0.18317576  0.19589446     0.77900
C2522       C  0.60110096  0.11376204  0.23950387     0.78300
C2523       C  0.56112693  0.16088901  0.29181463     0.79400
C2524       C  0.65260838  0.22377449  0.24649657     0.78500
Zn2525     Zn  0.81035650  0.38489542  0.25999261     1.49700
Zn2526     Zn  0.84140383  0.41725836  0.22360674     1.49400
Zn2527     Zn  0.87962528  0.41640436  0.25788244     1.49100
Zn2528     Zn  0.84048242  0.35526524  0.23663807     1.49500
O2529       O  0.84329757  0.39364914  0.24406697    -1.82800
O2530       O  0.79214022  0.41121187  0.25520129    -0.73400
O2531       O  0.88012380  0.45983506  0.22353383    -0.73200
O2532       O  0.87227379  0.41287830  0.28475369    -0.72800
O2533       O  0.80621591  0.42591177  0.22713031    -0.73400
O2534       O  0.82148769  0.38843266  0.28563323    -0.73000
O2535       O  0.89874178  0.45989012  0.25049882    -0.73600
O2536       O  0.88199721  0.35708013  0.23873100    -0.73000
O2537       O  0.83353114  0.39239856  0.20025260    -0.73800
O2538       O  0.90964550  0.40298167  0.25114458    -0.73200
O2539       O  0.83083119  0.34982443  0.21084444    -0.73600
O2540       O  0.80282979  0.31824370  0.24739240    -0.73500
O2541       O  0.77818799  0.34253999  0.25597759    -0.73300
C2542       C  0.79050910  0.42393901  0.24094852     0.78500
C2543       C  0.89891588  0.47357949  0.23617910     0.79000
C2544       C  0.84711517  0.40061075  0.29348454     0.77900
C2545       C  0.90765192  0.37938188  0.24371830     0.78300
C2546       C  0.82873268  0.36510855  0.19796186     0.79400
C2547       C  0.77827984  0.31803437  0.25213988     0.78500
Zn2548     Zn  0.74961192  0.28043039  0.09795677     1.49700
Zn2549     Zn  0.78084056  0.24413251  0.10818273     1.49400
Zn2550     Zn  0.74599993  0.22983747  0.07273619     1.49100
Zn2551     Zn  0.80771781  0.29351626  0.07610596     1.49500
O2552       O  0.77157196  0.26209448  0.08842258    -1.82800
O2553       O  0.76526279  0.29653190  0.12250266    -0.73400
O2554       O  0.75202327  0.19743666  0.10863604    -0.73200
O2555       O  0.70277457  0.22039185  0.07537690    -0.72800
O2556       O  0.78433170  0.26746469  0.13108108    -0.73400
O2557       O  0.70386101  0.25202150  0.09631491    -0.73000
O2558       O  0.74527886  0.19078417  0.07951891    -0.73600
O2559       O  0.80178731  0.28661529  0.04940135    -0.73000
O2560       O  0.82263381  0.25088129  0.10331537    -0.73800
O2561       O  0.75819783  0.24277080  0.04728556    -0.73200
O2562       O  0.84477338  0.28889264  0.08335884    -0.73600
O2563       O  0.81052587  0.33549341  0.08006126    -0.73500
O2564       O  0.76042840  0.31774408  0.08390592    -0.73300
C2565       C  0.77940192  0.28966071  0.13401489     0.78500
C2566       C  0.74332812  0.17976767  0.09510629     0.79000
C2567       C  0.68918084  0.23015541  0.08544469     0.77900
C2568       C  0.78065427  0.26605660  0.03993212     0.78300
C2569       C  0.84549080  0.26880398  0.09360424     0.79400
C2570       C  0.78733432  0.33960162  0.08064594     0.78500
Zn2571     Zn  0.71711004  0.45176085  0.09538308     1.49700
Zn2572     Zn  0.69724797  0.99282404  0.07582976     1.49400
Zn2573     Zn  0.74985145  0.01845720  0.10537073     1.49100
Zn2574     Zn  0.76148009  0.99500631  0.06851827     1.49500
O2575       O  0.73218972  0.99122104  0.08584667    -1.82800
O2576       O  0.68292319  0.42578656  0.07985725    -0.73400
O2577       O  0.69775723  0.03171548  0.08532140    -0.73200
O2578       O  0.72895062  0.99688283  0.12875422    -0.72800
O2579       O  0.65828472  0.45171194  0.08243037    -0.73400
O2580       O  0.70011736  0.44926224  0.11998760    -0.73000
O2581       O  0.73927744  0.05143541  0.10219564    -0.73600
O2582       O  0.80047816  0.03160672  0.07482426    -0.73000
O2583       O  0.70266611  0.99696179  0.04865229    -0.73800
O2584       O  0.79656639  0.03972252  0.10371593    -0.73200
O2585       O  0.74784492  0.99968612  0.04429300    -0.73600
O2586       O  0.77005608  0.45976748  0.06898639    -0.73500
O2587       O  0.74713747  0.43636860  0.09418128    -0.73300
C2588       C  0.65813373  0.42617085  0.08200140     0.78500
C2589       C  0.71770779  0.05362871  0.09481428     0.79000
C2590       C  0.70780310  0.46966214  0.13186052     0.77900
C2591       C  0.81214460  0.04550065  0.08928875     0.78300
C2592       C  0.72425131  0.99986372  0.03830984     0.79400
C2593       C  0.76459735  0.43975836  0.08102144     0.78500
Zn2594     Zn  0.58923865  0.40787737  0.22608780     1.49700
Zn2595     Zn  0.58944807  0.44664225  0.25881883     1.49400
Zn2596     Zn  0.62448102  0.41129613  0.26150997     1.49100
Zn2597     Zn  0.65040723  0.47013712  0.23710126     1.49500
O2598       O  0.61340145  0.43405132  0.24558405    -1.82800
O2599       O  0.54791194  0.40670298  0.22474932    -0.73400
O2600       O  0.59594937  0.44566891  0.28524355    -0.73200
O2601       O  0.59585348  0.36587580  0.25867022    -0.72800
O2602       O  0.54539550  0.41967577  0.25277765    -0.73400
O2603       O  0.57530253  0.36360310  0.23240594    -0.73000
O2604       O  0.62378558  0.42266704  0.28719641    -0.73600
O2605       O  0.68867222  0.47049352  0.24656070    -0.73000
O2606       O  0.60126401  0.48942172  0.25182366    -0.73800
O2607       O  0.66656751  0.42118554  0.25454724    -0.73200
O2608       O  0.64691226  0.00900083  0.23911425    -0.73600
O2609       O  0.65514866  0.46520399  0.21135881    -0.73500
O2610       O  0.61582195  0.42080341  0.20298908    -0.73300
C2611       C  0.53253659  0.40765367  0.23811553     0.78500
C2612       C  0.61044865  0.43576217  0.29448319     0.79000
C2613       C  0.57812256  0.35020610  0.24610694     0.77900
C2614       C  0.68997045  0.44609473  0.24954246     0.78300
C2615       C  0.62422065  0.01159023  0.24462114     0.79400
C2616       C  0.64184985  0.44466943  0.19968735     0.78500
Zn2617     Zn  0.91328862  0.37538823  0.73769869     1.49700
Zn2618     Zn  0.91953297  0.33979571  0.77135550     1.49400
Zn2619     Zn  0.85624858  0.33953134  0.76254256     1.49100
Zn2620     Zn  0.87835186  0.30459088  0.73774803     1.49500
O2621       O  0.89207705  0.33979376  0.75265439    -1.82800
O2622       O  0.95797613  0.39328097  0.74160116    -0.73400
O2623       O  0.89806841  0.33251968  0.79638644    -0.73200
O2624       O  0.85968748  0.38153075  0.76093853    -0.72800
O2625       O  0.96245361  0.37799504  0.76847466    -0.73400
O2626       O  0.90298638  0.40723001  0.74526476    -0.73000
O2627       O  0.85522266  0.33158287  0.78814073    -0.73600
O2628       O  0.83527146  0.27451811  0.74372742    -0.73000
O2629       O  0.92948793  0.30597373  0.76632952    -0.73800
O2630       O  0.81620868  0.30268212  0.75475995    -0.73200
O2631       O  0.90375613  0.28480721  0.74176017    -0.73600
O2632       O  0.88021400  0.31498327  0.71176171    -0.73500
O2633       O  0.90444725  0.36591992  0.71146005    -0.73300
C2634       C  0.97475457  0.39421688  0.75445864     0.78500
C2635       C  0.87159570  0.32916496  0.80009165     0.79000
C2636       C  0.88132078  0.40646674  0.75444508     0.77900
C2637       C  0.81290096  0.27709891  0.74953016     0.78300
C2638       C  0.92284475  0.28715812  0.75356054     0.79400
C2639       C  0.89136854  0.34036097  0.70339357     0.78500
Zn2640     Zn  0.75936898  0.29348718  0.89424403     1.49700
Zn2641     Zn  0.74253769  0.25074491  0.92853416     1.49400
Zn2642     Zn  0.79455945  0.25833120  0.90259475     1.49100
Zn2643     Zn  0.80565176  0.31288903  0.92770915     1.49500
O2644       O  0.77544899  0.27931938  0.91330718    -1.82800
O2645       O  0.71207966  0.27022816  0.89510762    -0.73400
O2646       O  0.73581069  0.20848541  0.92601880    -0.73200
O2647       O  0.80663975  0.27182178  0.87736529    -0.72800
O2648       O  0.70330655  0.24798752  0.92168405    -0.73400
O2649       O  0.77985212  0.29419095  0.87024657    -0.73000
O2650       O  0.76893531  0.21232132  0.90507798    -0.73600
O2651       O  0.84844031  0.31949873  0.92248762    -0.73000
O2652       O  0.75116234  0.26078478  0.95432979    -0.73800
O2653       O  0.83475892  0.27207697  0.91374431    -0.73200
O2654       O  0.79781102  0.30114746  0.95407227    -0.73600
O2655       O  0.80188585  0.35106972  0.92291967    -0.73500
O2656       O  0.77112053  0.33713105  0.89933275    -0.73300
C2657       C  0.69365265  0.25512860  0.90788984     0.78500
C2658       C  0.74712872  0.19643489  0.91594153     0.79000
C2659       C  0.79985731  0.28650204  0.86619690     0.77900
C2660       C  0.85497117  0.29868315  0.91863705     0.78300
C2661       C  0.77494669  0.28005284  0.96258794     0.79400
C2662       C  0.78702034  0.35664214  0.91110757     0.78500
Zn2663     Zn  0.70052479  0.09097220  0.73855059     1.49700
Zn2664     Zn  0.63159457  0.05834448  0.73982452     1.49400
Zn2665     Zn  0.66654542  0.03193080  0.76329089     1.49100
Zn2666     Zn  0.66879454  0.09492401  0.77397601     1.49500
O2667       O  0.66653539  0.06859819  0.75429654    -1.82800
O2668       O  0.69118274  0.08261617  0.71285781    -0.73400
O2669       O  0.60112019  0.01457905  0.74454920    -0.73200
O2670       O  0.70726083  0.03367592  0.75709886    -0.72800
O2671       O  0.64080564  0.06229698  0.71321411    -0.73400
O2672       O  0.73121149  0.08004361  0.74462058    -0.73000
O2673       O  0.62617768  0.49300821  0.75714065    -0.73600
O2674       O  0.67892665  0.08001130  0.79741831    -0.73000
O2675       O  0.61335283  0.08429100  0.74695230    -0.73800
O2676       O  0.66983220  0.03341488  0.78998280    -0.73200
O2677       O  0.62982043  0.09793556  0.77475516    -0.73600
O2678       O  0.70136160  0.13897150  0.76869999    -0.73500
O2679       O  0.71932560  0.13574256  0.74237001    -0.73300
C2680       C  0.66591261  0.07164026  0.70470745     0.78500
C2681       C  0.60164931  0.49108673  0.75083960     0.79000
C2682       C  0.73180803  0.05761235  0.75195908     0.77900
C2683       C  0.67765248  0.05458373  0.80140025     0.78300
C2684       C  0.61294398  0.09649288  0.76169729     0.79400
C2685       C  0.71836138  0.15173132  0.75512303     0.78500
Zn2686     Zn  0.76307439  0.01055573  0.92878858     1.49700
Zn2687     Zn  0.75350032  0.04886221  0.90127428     1.49400
Zn2688     Zn  0.72629362  0.48382995  0.89319325     1.49100
Zn2689     Zn  0.69792016  0.00643384  0.92478418     1.49500
O2690       O  0.73393856  0.01076228  0.91254704    -1.82800
O2691       O  0.80470031  0.04838730  0.92587000    -0.73400
O2692       O  0.73607155  0.04854597  0.87747479    -0.73200
O2693       O  0.75261643  0.46306529  0.89529106    -0.72800
O2694       O  0.79806697  0.06449786  0.89974327    -0.73400
O2695       O  0.76797549  0.47440195  0.92346101    -0.73000
O2696       O  0.72214512  0.50138394  0.86903877    -0.73600
O2697       O  0.66183202  0.46490856  0.91778494    -0.73000
O2698       O  0.74557298  0.07660544  0.91541531    -0.73800
O2699       O  0.68476656  0.45074757  0.89764283    -0.73200
O2700       O  0.69543299  0.04563053  0.92000355    -0.73600
O2701       O  0.70338571  0.50521039  0.95189561    -0.73500
O2702       O  0.74889552  0.50829155  0.95431703    -0.73300
C2703       C  0.81544971  0.06614594  0.91240601     0.78500
C2704       C  0.72451150  0.02769853  0.86585410     0.79000
C2705       C  0.76430068  0.45884979  0.90943010     0.77900
C2706       C  0.66162632  0.44492275  0.90718343     0.78300
C2707       C  0.71901944  0.07247318  0.91877622     0.79400
C2708       C  0.72498936  0.50655920  0.96139002     0.78500
Zn2709     Zn  0.53124117  0.25739803  0.89121804     1.49700
Zn2710     Zn  0.51029277  0.27442061  0.92699152     1.49400
Zn2711     Zn  0.96402915  0.22770824  0.90231977     1.49100
Zn2712     Zn  0.50446907  0.20830201  0.92208417     1.49500
O2713       O  0.50382452  0.24285071  0.91090728    -1.82800
O2714       O  0.55199700  0.30368566  0.89047747    -0.73400
O2715       O  0.97735612  0.28581529  0.92628154    -0.73200
O2716       O  0.96112644  0.21013358  0.87791894    -0.72800
O2717       O  0.54810041  0.31195226  0.91940655    -0.73400
O2718       O  0.50985028  0.23306344  0.86908379    -0.73000
O2719       O  0.94887335  0.25787813  0.90386007    -0.73600
O2720       O  0.96471058  0.16904675  0.91525056    -0.73000
O2721       O  0.51142438  0.26064082  0.95171996    -0.73800
O2722       O  0.93839674  0.19319181  0.91829364    -0.73200
O2723       O  0.50442913  0.21359061  0.94876297    -0.73600
O2724       O  0.54480453  0.20966317  0.91548577    -0.73500
O2725       O  0.56476415  0.24853205  0.89613610    -0.73300
C2726       C  0.55982886  0.32128930  0.90400080     0.78500
C2727       C  0.95529287  0.27832468  0.91560935     0.79000
C2728       C  0.98155304  0.21377218  0.86658461     0.77900
C2729       C  0.93905472  0.16857295  0.91598826     0.78300
C2730       C  0.50782662  0.23577948  0.95849879     0.79400
C2731       C  0.56706813  0.22887539  0.90569237     0.78500
Zn2732     Zn  0.95242903  0.09028238  0.74390032     1.49700
Zn2733     Zn  0.97448075  0.15043814  0.76605182     1.49400
Zn2734     Zn  0.91656733  0.12483590  0.74131285     1.49100
Zn2735     Zn  0.91193798  0.08795265  0.77709879     1.49500
O2736       O  0.93874691  0.11342648  0.75743947    -1.82800
O2737       O  0.49470161  0.10187270  0.75114875    -0.73400
O2738       O  0.97622240  0.18931246  0.75651632    -0.73200
O2739       O  0.92275827  0.11813101  0.71580114    -0.72800
O2740       O  0.51366736  0.14784545  0.76363242    -0.73400
O2741       O  0.95112723  0.09570325  0.71736218    -0.73000
O2742       O  0.92983102  0.16884219  0.74450060    -0.73600
O2743       O  0.86873819  0.07937274  0.77293957    -0.73000
O2744       O  0.96865626  0.15367234  0.79193230    -0.73800
O2745       O  0.87205038  0.10120828  0.74656546    -0.73200
O2746       O  0.92638867  0.11133294  0.80084442    -0.73600
O2747       O  0.90673407  0.04478850  0.77658200    -0.73500
O2748       O  0.92586926  0.04609673  0.74961621    -0.73300
C2749       C  0.51647366  0.12517850  0.75851797     0.78500
C2750       C  0.95416024  0.19191674  0.75007016     0.79000
C2751       C  0.93722431  0.10645535  0.70832380     0.77900
C2752       C  0.85651397  0.08522445  0.75982930     0.78300
C2753       C  0.94927184  0.13789121  0.80394401     0.79400
C2754       C  0.91045982  0.03124271  0.76324272     0.78500
C2755       C  0.97221802  0.19329236  0.85083694    -0.04000
C2756       C  0.48620274  0.17532320  0.84751869    -0.01100
C2757       C  0.97752731  0.15576107  0.83266221     0.03900
C2758       C  0.95360307  0.15257099  0.82156887    -0.04000
C2759       C  0.93826469  0.16898051  0.82553393    -0.01100
C2760       C  0.94785007  0.18964696  0.83991558     0.03900
C2761       C  0.50862936  0.17588328  0.85981220     0.38500
C2762       C  0.91349166  0.16569703  0.81428554     0.38500
C2763       C  0.93365805  0.20829841  0.84289565     0.36900
C2764       C  0.49356425  0.13921332  0.82860145     0.36900
N2765       N  0.92250310  0.22335288  0.84517772    -0.37900
N2766       N  0.50649332  0.12615152  0.82534071    -0.37900
N2767       N  0.89366733  0.16315935  0.80538929    -0.37300
N2768       N  0.52612700  0.17588277  0.86975655    -0.37300
C2769       C  0.63477183  0.41336582  0.90591690    -0.04000
C2770       C  0.63972470  0.38847472  0.90182008    -0.01100
C2771       C  0.61479353  0.35876948  0.89970712     0.03900
C2772       C  0.58479374  0.35316993  0.90241868    -0.04000
C2773       C  0.57951604  0.37749399  0.90655828    -0.01100
C2774       C  0.60439529  0.40757688  0.90826275     0.03900
C2775       C  0.67041368  0.39251178  0.90076749     0.38500
C2776       C  0.54831444  0.37142603  0.90891497     0.38500
C2777       C  0.59848112  0.43228618  0.91246214     0.36900
C2778       C  0.62017553  0.33354405  0.89567792     0.36900
N2779       N  0.59364733  0.45189137  0.91594033    -0.37900
N2780       N  0.62463608  0.31360232  0.89246016    -0.37900
N2781       N  0.52337229  0.36643926  0.91070609    -0.37300
N2782       N  0.69466999  0.39533005  0.89987636    -0.37300
C2783       C  0.84823096  0.09066848  0.91176448    -0.04000
C2784       C  0.85625697  0.11875437  0.90304894    -0.01100
C2785       C  0.88659160  0.14290302  0.90319413     0.03900
C2786       C  0.90920481  0.14037258  0.91305667    -0.04000
C2787       C  0.90177425  0.11207670  0.92111899    -0.01100
C2788       C  0.87139791  0.08718592  0.92038461     0.03900
C2789       C  0.83315697  0.12418370  0.89486458     0.38500
C2790       C  0.92494131  0.10880823  0.93072960     0.38500
C2791       C  0.86413646  0.05818895  0.92865779     0.36900
C2792       C  0.89397527  0.17069338  0.89326545     0.36900
N2793       N  0.85836845  0.03509993  0.93530938    -0.37900
N2794       N  0.89884256  0.19250879  0.88538475    -0.37900
N2795       N  0.94337429  0.10605527  0.93836898    -0.37300
N2796       N  0.81493212  0.12875342  0.88841039    -0.37300
C2797       C  0.59180329  0.10891781  0.76341399    -0.04000
C2798       C  0.56769647  0.09620369  0.77600639    -0.01100
C2799       C  0.54390803  0.10328351  0.77508834     0.03900
C2800       C  0.54476181  0.12405233  0.76205366    -0.04000
C2801       C  0.57034124  0.13909010  0.75062025    -0.01100
C2802       C  0.59362638  0.13117705  0.75108826     0.03900
C2803       C  0.56619722  0.07420365  0.78910366     0.38500
C2804       C  0.57186024  0.16146913  0.73780386     0.38500
C2805       C  0.61907601  0.14534259  0.73857701     0.36900
C2806       C  0.51753324  0.08779613  0.78688714     0.36900
N2807       N  0.63933267  0.15654270  0.72856746    -0.37900
N2808       N  0.49632032  0.07527900  0.79613727    -0.37900
N2809       N  0.57313618  0.17945033  0.72764644    -0.37300
N2810       N  0.56502669  0.05670775  0.79958477    -0.37300
C2811       C  0.82380240  0.07579124  0.76039405    -0.04000
C2812       C  0.81581396  0.09836937  0.76380033    -0.01100
C2813       C  0.78534266  0.09146982  0.76210252     0.03900
C2814       C  0.76263891  0.06216946  0.75601571    -0.04000
C2815       C  0.77046589  0.03912913  0.75322676    -0.01100
C2816       C  0.80108719  0.04589699  0.75565932     0.03900
C2817       C  0.83932093  0.12934531  0.76829182     0.38500
C2818       C  0.74747814  0.50812327  0.74856646     0.38500
C2819       C  0.80953726  0.02261653  0.75258114     0.36900
C2820       C  0.77780058  0.11516924  0.76633658     0.36900
N2821       N  0.81600175  0.50279413  0.75230713    -0.37900
N2822       N  0.77206247  0.13428494  0.76945180    -0.37900
N2823       N  0.72912147  0.48389787  0.74405942    -0.37300
N2824       N  0.85793196  0.15416679  0.77159110    -0.37300
C2825       C  0.71258514  0.03426866  0.84914737    -0.04000
C2826       C  0.73043808  0.06216156  0.83974305    -0.01100
C2827       C  0.71824358  0.06983558  0.82491217     0.03900
C2828       C  0.68803704  0.04969068  0.81915082    -0.04000
C2829       C  0.66977979  0.02242221  0.82897905    -0.01100
C2830       C  0.68194946  0.01467344  0.84381654     0.03900
C2831       C  0.76188206  0.08268567  0.84496469     0.38500
C2832       C  0.63783025  0.00310918  0.82439284     0.38500
C2833       C  0.66198560  0.48849725  0.85501873     0.36900
C2834       C  0.73727809  0.09826342  0.81533431     0.36900
N2835       N  0.64604283  0.46713518  0.86354786    -0.37900
N2836       N  0.75260161  0.12115779  0.80791273    -0.37900
N2837       N  0.61170715  0.49040130  0.82234758    -0.37300
N2838       N  0.78697660  0.09904341  0.84909452    -0.37300
C2839       C  0.88671067  0.30461686  0.91912484    -0.04000
C2840       C  0.89787122  0.29852313  0.93486264    -0.01100
C2841       C  0.92258627  0.29275202  0.93403951     0.03900
C2842       C  0.93561865  0.29245085  0.91734201    -0.04000
C2843       C  0.92682067  0.30229748  0.90198095    -0.01100
C2844       C  0.90231912  0.30827922  0.90286935     0.03900
C2845       C  0.88215603  0.29556475  0.95162055     0.38500
C2846       C  0.94254430  0.30558682  0.88518855     0.38500
C2847       C  0.89181567  0.31624346  0.88682588     0.36900
C2848       C  0.93280256  0.28477615  0.95019499     0.36900
N2849       N  0.88354023  0.32265409  0.87401313    -0.37900
N2850       N  0.94099246  0.27854901  0.96311488    -0.37900
N2851       N  0.95521100  0.30829140  0.87183400    -0.37300
N2852       N  0.86945865  0.29309881  0.96493462    -0.37300
C2853       C  0.66022517  0.24580577  0.90716541    -0.04000
C2854       C  0.64508433  0.24148723  0.89068194    -0.01100
C2855       C  0.61424492  0.23472547  0.89018069     0.03900
C2856       C  0.59745464  0.23050015  0.90611385    -0.04000
C2857       C  0.61177256  0.23280135  0.92257531    -0.01100
C2858       C  0.64305330  0.24119738  0.92316506     0.03900
C2859       C  0.66086781  0.24356487  0.87408443     0.38500
C2860       C  0.59492041  0.22857885  0.93908903     0.38500
C2861       C  0.65759688  0.24676502  0.94045972     0.36900
C2862       C  0.59996551  0.23256948  0.87310727     0.36900
N2863       N  0.66901604  0.25124104  0.95428679    -0.37900
N2864       N  0.58893440  0.23127024  0.85942842    -0.37900
N2865       N  0.58152155  0.22515921  0.95224997    -0.37300
N2866       N  0.67330521  0.24510247  0.86080629    -0.37300
C2867       C  0.71693053  0.10050057  0.92031188    -0.04000
C2868       C  0.70950364  0.11188080  0.90504142    -0.01100
C2869       C  0.71849600  0.14323765  0.90378002     0.03900
C2870       C  0.73537866  0.16323564  0.91763722    -0.04000
C2871       C  0.74151537  0.15158506  0.93324409    -0.01100
C2872       C  0.73180538  0.12015786  0.93469348     0.03900
C2873       C  0.69492070  0.09186253  0.89005059     0.38500
C2874       C  0.76031980  0.17235659  0.94709901     0.38500
C2875       C  0.73891456  0.10829966  0.95052411     0.36900
C2876       C  0.71134215  0.15515653  0.88801578     0.36900
N2877       N  0.74454106  0.09884750  0.96315667    -0.37900
N2878       N  0.70566029  0.16473818  0.87545975    -0.37900
N2879       N  0.77578320  0.18895931  0.95799163    -0.37300
N2880       N  0.68346656  0.07593093  0.87805872    -0.37300
C2881       C  0.77239842  0.43409485  0.91023952    -0.04000
C2882       C  0.79028720  0.43095396  0.89675934    -0.01100
C2883       C  0.79703702  0.40680836  0.89764148     0.03900
C2884       C  0.78545175  0.38531510  0.91179003    -0.04000
C2885       C  0.76826970  0.38888510  0.92548808    -0.01100
C2886       C  0.76197101  0.41324352  0.92482420     0.03900
C2887       C  0.80223730  0.45286896  0.88216586     0.38500
C2888       C  0.75558147  0.36641505  0.93982727     0.38500
C2889       C  0.74333062  0.41576383  0.93880437     0.36900
C2890       C  0.81660853  0.40453817  0.88425044     0.36900
N2891       N  0.72854182  0.41780211  0.94997119    -0.37900
N2892       N  0.83268917  0.40318411  0.87368950    -0.37900
N2893       N  0.74537476  0.34838769  0.95118287    -0.37300
N2894       N  0.81174448  0.47037937  0.87052628    -0.37300
C2895       C  0.50911755  0.41513984  0.75273817    -0.04000
C2896       C  0.52930492  0.42023113  0.76718397    -0.01100
C2897       C  0.56078458  0.44266483  0.76581307     0.03900
C2898       C  0.57220847  0.46138900  0.75049181    -0.04000
C2899       C  0.55328493  0.45414697  0.73544819    -0.01100
C2900       C  0.52233869  0.43074657  0.73632713     0.03900
C2901       C  0.51814859  0.40301780  0.78368425     0.38500
C2902       C  0.56578987  0.47095851  0.71886775     0.38500
C2903       C  0.50474124  0.42313844  0.72001045     0.36900
C2904       C  0.58132972  0.44669976  0.78030181     0.36900
N2905       N  0.99103896  0.41739811  0.70689985    -0.37900
N2906       N  0.59789791  0.44937714  0.79166435    -0.37900
N2907       N  0.57555780  0.98482968  0.70528910    -0.37300
N2908       N  0.50949099  0.38941496  0.79691220    -0.37300
C2909       C  0.78303366  0.24864017  0.75103436    -0.04000
C2910       C  0.76929097  0.23163107  0.73563759    -0.01100
C2911       C  0.74620315  0.20066795  0.73706842     0.03900
C2912       C  0.73800130  0.18584170  0.75397362    -0.04000
C2913       C  0.75039381  0.20371476  0.76947759    -0.01100
C2914       C  0.77227828  0.23518429  0.76794650     0.03900
C2915       C  0.77988809  0.24578405  0.71823877     0.38500
C2916       C  0.74266462  0.18964103  0.78703345     0.38500
C2917       C  0.78536065  0.25319327  0.78384518     0.36900
C2918       C  0.73129552  0.18421174  0.72098865     0.36900
N2919       N  0.79549046  0.26741047  0.79659474    -0.37900
N2920       N  0.71946318  0.17113678  0.70815522    -0.37900
N2921       N  0.73672639  0.17855810  0.80107374    -0.37300
N2922       N  0.78847796  0.25702077  0.70437741    -0.37300
C2923       C  0.88288871  0.43598863  0.75831080    -0.04000
C2924       C  0.87512389  0.45074893  0.74507322    -0.01100
C2925       C  0.88299485  0.48164782  0.74713484     0.03900
C2926       C  0.89854276  0.49794875  0.76258132    -0.04000
C2927       C  0.90400870  0.48232468  0.77648057    -0.01100
C2928       C  0.89680688  0.45159402  0.77417522     0.03900
C2929       C  0.86018058  0.43443601  0.72898587     0.38500
C2930       C  0.91615810  0.99762572  0.79328902     0.38500
C2931       C  0.90609655  0.43688903  0.78748431     0.36900
C2932       C  0.87558119  0.49683005  0.73312659     0.36900
N2933       N  0.91390094  0.42536818  0.79800810    -0.37900
N2934       N  0.86980375  0.50898476  0.72193117    -0.37900
N2935       N  0.92747833  0.01029803  0.80631238    -0.37300
N2936       N  0.84826649  0.42135953  0.71617204    -0.37300
C2937       C  0.95496052  0.22179008  0.75003388    -0.04000
C2938       C  0.94672109  0.23173590  0.73453825    -0.01100
C2939       C  0.93872514  0.25487482  0.73547058     0.03900
C2940       C  0.93724650  0.26724939  0.75218828    -0.04000
C2941       C  0.94854871  0.25931321  0.76742614    -0.01100
C2942       C  0.95778465  0.23701764  0.76622935     0.03900
C2943       C  0.94579164  0.21753479  0.71760173     0.38500
C2944       C  0.94945217  0.27268303  0.78462822     0.38500
C2945       C  0.46839719  0.22841573  0.78199462     0.36900
C2946       C  0.93215021  0.26575549  0.71904232     0.36900
N2947       N  0.47713451  0.22187084  0.79456611    -0.37900
N2948       N  0.92693816  0.27434025  0.70591203    -0.37900
N2949       N  0.45035007  0.28325088  0.79840042    -0.37300
N2950       N  0.94492568  0.20612990  0.70412186    -0.37300
C2951       C  0.85744331  0.32092268  0.81830607    -0.04000
C2952       C  0.84108848  0.33516238  0.82475135    -0.01100
C2953       C  0.82139465  0.32325996  0.83971891     0.03900
C2954       C  0.81775115  0.29684438  0.84885804    -0.04000
C2955       C  0.83424992  0.28256865  0.84230034    -0.01100
C2956       C  0.85422906  0.29483201  0.82737424     0.03900
C2957       C  0.84413526  0.36224396  0.81580879     0.38500
C2958       C  0.82986315  0.25429223  0.85027240     0.38500
C2959       C  0.87026876  0.27951868  0.82079514     0.36900
C2960       C  0.80475646  0.33850295  0.84539011     0.36900
N2961       N  0.88307499  0.26728784  0.81559577    -0.37900
N2962       N  0.79125334  0.35054146  0.84967018    -0.37900
N2963       N  0.82642256  0.23169693  0.85652067    -0.37300
N2964       N  0.84600404  0.38362191  0.80875771    -0.37300
C2965       C  0.72247147  0.00361280  0.01871782    -0.04000
C2966       C  0.69604653  0.48429125  0.00937608    -0.01100
C2967       C  0.69629939  0.48547008  0.99053932     0.03900
C2968       C  0.72265386  0.00644431  0.98091568    -0.04000
C2969       C  0.74836239  0.02790533  0.99062670    -0.01100
C2970       C  0.74849999  0.02615522  0.00933436     0.03900
C2971       C  0.66886559  0.46145178  0.01873762     0.38500
C2972       C  0.77470105  0.05231934  0.98137335     0.38500
C2973       C  0.77579138  0.04767659  0.01884754     0.36900
C2974       C  0.66956083  0.46348906  0.98081114     0.36900
N2975       N  0.79785717  0.06475890  0.02621180    -0.37900
N2976       N  0.64823430  0.44587811  0.97306856    -0.37900
N2977       N  0.79562254  0.07183972  0.97400466    -0.37300
N2978       N  0.64718551  0.44325503  0.02621942    -0.37300
C2979       C  0.65836170  0.44903543  0.18224007    -0.04000
C2980       C  0.64220162  0.43921340  0.16605817    -0.01100
C2981       C  0.65829557  0.44546260  0.14966317     0.03900
C2982       C  0.69080561  0.46131026  0.14918637    -0.04000
C2983       C  0.70696081  0.47015169  0.16529797    -0.01100
C2984       C  0.69104687  0.46430920  0.18165966     0.03900
C2985       C  0.60898250  0.42410571  0.16606535     0.38500
C2986       C  0.74020592  0.48485690  0.16509107     0.38500
C2987       C  0.70900430  0.47440795  0.19780005     0.36900
C2988       C  0.64111649  0.43703863  0.13323405     0.36900
N2989       N  0.72401725  0.48320441  0.21037723    -0.37900
N2990       N  0.62694007  0.43032454  0.12030028    -0.37900
N2991       N  0.76624096  0.99594825  0.16473196    -0.37300
N2992       N  0.58248706  0.41208537  0.16604148    -0.37300
C2993       C  0.78113790  0.26969553  0.01998199    -0.04000
C2994       C  0.76401510  0.24381015  0.00906255    -0.01100
C2995       C  0.76070547  0.24736324  0.99069315     0.03900
C2996       C  0.77644566  0.27678568  0.98242535    -0.04000
C2997       C  0.79450461  0.30257458  0.99317670    -0.01100
C2998       C  0.79664029  0.29918363  0.01174927     0.03900
C2999       C  0.75030104  0.21293675  0.01645723     0.38500
C3000       C  0.80994782  0.33315874  0.98536430     0.38500
C3001       C  0.81436086  0.32650583  0.02225120     0.36900
C3002       C  0.74062099  0.22026821  0.98053491     0.36900
N3003       N  0.82858194  0.34844883  0.03052937    -0.37900
N3004       N  0.72400682  0.19856476  0.97267615    -0.37900
N3005       N  0.82226671  0.35752973  0.97919488    -0.37300
N3006       N  0.73944449  0.18833045  0.02222755    -0.37300
C3007       C  0.79056049  0.37029873  0.07853340    -0.04000
C3008       C  0.77767368  0.37651252  0.06353569    -0.01100
C3009       C  0.77170360  0.40111830  0.06375132     0.03900
C3010       C  0.77734080  0.41881001  0.07929745    -0.04000
C3011       C  0.79215341  0.41387538  0.09382772    -0.01100
C3012       C  0.79888845  0.38977029  0.09340110     0.03900
C3013       C  0.76817758  0.35601549  0.04843347     0.38500
C3014       C  0.79982243  0.43315319  0.10940424     0.38500
C3015       C  0.81194569  0.38331870  0.10888542     0.36900
C3016       C  0.75752469  0.40659798  0.04844693     0.36900
N3017       N  0.82226244  0.37806661  0.12123773    -0.37900
N3018       N  0.74630878  0.41103143  0.03622411    -0.37900
N3019       N  0.80596163  0.44851750  0.12183995    -0.37300
N3020       N  0.76015992  0.33955532  0.03644343    -0.37300
C3021       C  0.73134694  0.14582043  0.09710363    -0.04000
C3022       C  0.74029163  0.13373692  0.11147543    -0.01100
C3023       C  0.73249433  0.10255129  0.11167230     0.03900
C3024       C  0.71755291  0.08334197  0.09693557    -0.04000
C3025       C  0.70580897  0.09450523  0.08355243    -0.01100
C3026       C  0.71187173  0.12516987  0.08394969     0.03900
C3027       C  0.75867637  0.15335138  0.12584390     0.38500
C3028       C  0.68842175  0.07510218  0.06887291     0.38500
C3029       C  0.69758537  0.13517973  0.07077840     0.36900
C3030       C  0.73985126  0.09032505  0.12726622     0.36900
N3031       N  0.68607389  0.14308628  0.06032754    -0.37900
N3032       N  0.74562759  0.08061405  0.13973311    -0.37900
N3033       N  0.67453742  0.05977688  0.05711858    -0.37300
N3034       N  0.77337857  0.16884424  0.13733622    -0.37300
C3035       C  0.93670869  0.37967265  0.23987710    -0.04000
C3036       C  0.94885365  0.36759470  0.25228586    -0.01100
C3037       C  0.97971203  0.37474559  0.25078778     0.03900
C3038       C  0.99879347  0.39467656  0.23709696    -0.04000
C3039       C  0.98586919  0.40466285  0.22384789    -0.01100
C3040       C  0.95479688  0.39690928  0.22516516     0.03900
C3041       C  0.92998085  0.34897007  0.26702317     0.38500
C3042       C  0.00501029  0.42480162  0.20964018     0.38500
C3043       C  0.94171236  0.40786305  0.21180082     0.36900
C3044       C  0.49201073  0.36192608  0.26350821     0.36900
N3045       N  0.93120855  0.41653288  0.20114853    -0.37900
N3046       N  0.50188711  0.35166899  0.27357854    -0.37900
N3047       N  0.02034373  0.44097188  0.19835396    -0.37300
N3048       N  0.91491211  0.33410982  0.27878709    -0.37300
C3049       C  0.76804244  0.43470332  0.24047930    -0.04000
C3050       C  0.77037317  0.45719923  0.25256443    -0.01100
C3051       C  0.74552185  0.46252240  0.25494432     0.03900
C3052       C  0.71819689  0.44495856  0.24544893    -0.04000
C3053       C  0.71673570  0.42393224  0.23250528    -0.01100
C3054       C  0.74157300  0.41883365  0.23003536     0.03900
C3055       C  0.79806104  0.47417761  0.26289030     0.38500
C3056       C  0.68935675  0.40710276  0.22183883     0.38500
C3057       C  0.73878364  0.39537858  0.21778359     0.36900
C3058       C  0.74685024  0.98488724  0.26734487     0.36900
N3059       N  0.73623435  0.37640840  0.20813763    -0.37900
N3060       N  0.74851878  0.00288879  0.27747868    -0.37900
N3061       N  0.66758984  0.39373828  0.21331434    -0.37300
N3062       N  0.81966729  0.98795440  0.27075025    -0.37300
C3063       C  0.79216345  0.30929823  0.15046450    -0.04000
C3064       C  0.78212348  0.33010033  0.15577396    -0.01100
C3065       C  0.79625994  0.35055957  0.17009331     0.03900
C3066       C  0.81903636  0.34919814  0.18033995    -0.04000
C3067       C  0.82955784  0.32903463  0.17494969    -0.01100
C3068       C  0.81677396  0.30977624  0.16004524     0.03900
C3069       C  0.75663125  0.33034482  0.14693794     0.38500
C3070       C  0.85444576  0.32863443  0.18449066     0.38500
C3071       C  0.83005789  0.29124179  0.15447855     0.36900
C3072       C  0.78707265  0.37298822  0.17425785     0.36900
N3073       N  0.84086534  0.27664782  0.15008608    -0.37900
N3074       N  0.78014081  0.39128475  0.17725265    -0.37900
N3075       N  0.87419423  0.32820703  0.19210042    -0.37300
N3076       N  0.73629583  0.33068297  0.13999707    -0.37300
C3077       C  0.62432817  0.04118807  0.24331352    -0.04000
C3078       C  0.61765238  0.05268381  0.25870579    -0.01100
C3079       C  0.61059704  0.07645508  0.25747281     0.03900
C3080       C  0.61076415  0.08983197  0.24066443    -0.04000
C3081       C  0.61955310  0.07954767  0.22535318    -0.01100
C3082       C  0.62625979  0.05532158  0.22669895     0.03900
C3083       C  0.61761115  0.03954700  0.27599691     0.38500
C3084       C  0.62178874  0.09374714  0.20816185     0.38500
C3085       C  0.63388587  0.04408129  0.21085818     0.36900
C3086       C  0.60162120  0.08564049  0.27369214     0.36900
N3087       N  0.64004081  0.03516597  0.19821886    -0.37900
N3088       N  0.59456965  0.09285118  0.28668537    -0.37900
N3089       N  0.62357689  0.10502159  0.19441805    -0.37300
N3090       N  0.61757949  0.02901651  0.28972705    -0.37300
C3091       C  0.54452828  0.25292272  0.24863535    -0.04000
C3092       C  0.55017166  0.26948799  0.26449838    -0.01100
C3093       C  0.55797823  0.30063108  0.26392726     0.03900
C3094       C  0.56144163  0.31571493  0.24729464    -0.04000
C3095       C  0.55064429  0.29735980  0.23178232    -0.01100
C3096       C  0.54247548  0.26614618  0.23251968     0.03900
C3097       C  0.54972772  0.25488652  0.28127853     0.38500
C3098       C  0.54879098  0.31027286  0.21484370     0.38500
C3099       C  0.03381745  0.24795677  0.21642859     0.36900
C3100       C  0.56227550  0.31684218  0.28052077     0.36900
N3101       N  0.02683056  0.23342481  0.20362255    -0.37900
N3102       N  0.56546394  0.32965567  0.29377928    -0.37900
N3103       N  0.04698354  0.32030978  0.20130563    -0.37300
N3104       N  0.54932132  0.24314883  0.29463933    -0.37300
C3105       C  0.92303006  0.00616828  0.23459986    -0.04000
C3106       C  0.95358841  0.01281065  0.23659956    -0.01100
C3107       C  0.97733429  0.04324428  0.23815524     0.03900
C3108       C  0.97101184  0.06774715  0.23743363    -0.04000
C3109       C  0.94042054  0.06119746  0.23527025    -0.01100
C3110       C  0.91645274  0.03039503  0.23371752     0.03900
C3111       C  0.96125913  0.48809085  0.23739539     0.38500
C3112       C  0.93362393  0.08600991  0.23456723     0.38500
C3113       C  0.88501791  0.02355914  0.23172588     0.36900
C3114       C  0.50826550  0.04898256  0.24126039     0.36900
N3115       N  0.85991909  0.01806451  0.23007262    -0.37900
N3116       N  0.53275565  0.05319566  0.24372468    -0.37900
N3117       N  0.92817064  0.10581695  0.23409634    -0.37300
N3118       N  0.96719287  0.46863670  0.23818406    -0.37300
C3119       C  0.74816903  0.28947202  0.25236002    -0.04000
C3120       C  0.73817762  0.27040693  0.23722198    -0.01100
C3121       C  0.70686269  0.24846509  0.23535933     0.03900
C3122       C  0.68553293  0.24576104  0.24848598    -0.04000
C3123       C  0.69565750  0.26368580  0.26396499    -0.01100
C3124       C  0.72690450  0.28507355  0.26605139     0.03900
C3125       C  0.75955412  0.27462527  0.22299546     0.38500
C3126       C  0.67359332  0.26161806  0.27722791     0.38500
C3127       C  0.73697210  0.30334367  0.28210661     0.36900
C3128       C  0.69647920  0.22890113  0.21986023     0.36900
N3129       N  0.74487653  0.31798484  0.29486330    -0.37900
N3130       N  0.68816683  0.21323268  0.20752257    -0.37900
N3131       N  0.65596761  0.26024487  0.28767096    -0.37300
N3132       N  0.77651240  0.27793512  0.21160271    -0.37300
C3133       C  0.50715246  0.23275411  0.97825301    -0.04000
C3134       C  0.48722899  0.20434490  0.98676087    -0.01100
C3135       C  0.48602011  0.20203505  0.00549872     0.03900
C3136       C  0.50406859  0.22815199  0.01587226    -0.04000
C3137       C  0.02345965  0.25657449  0.00748023    -0.01100
C3138       C  0.02546183  0.25880406  0.98881557     0.03900
C3139       C  0.46701148  0.17760753  0.97639938     0.38500
C3140       C  0.04063825  0.28395737  0.01809409     0.38500
C3141       C  0.04693703  0.28803294  0.98064266     0.36900
C3142       C  0.46669596  0.17259439  0.01409453     0.36900
N3143       N  0.06401535  0.31139042  0.97419088    -0.37900
N3144       N  0.45138191  0.14907730  0.02092224    -0.37900
N3145       N  0.05414063  0.30574758  0.02657887    -0.37300
N3146       N  0.45077461  0.15624997  0.96819864    -0.37300
C3147       C  0.65563073  0.21675496  0.08367716    -0.04000
C3148       C  0.64286682  0.21487813  0.06666662    -0.01100
C3149       C  0.61186124  0.20676727  0.06513371     0.03900
C3150       C  0.59342271  0.20021464  0.08050549    -0.04000
C3151       C  0.60530673  0.19895444  0.09728422    -0.01100
C3152       C  0.63646273  0.20745514  0.09888285     0.03900
C3153       C  0.66204059  0.22349950  0.05079855     0.38500
C3154       C  0.58615235  0.19103807  0.11309751     0.38500
C3155       C  0.64892300  0.20716629  0.11620966     0.36900
C3156       C  0.59917352  0.20650511  0.04778037     0.36900
N3157       N  0.65888411  0.20695464  0.13002377    -0.37900
N3158       N  0.58905028  0.20633939  0.03395962    -0.37900
N3159       N  0.57105904  0.18462914  0.12579390    -0.37300
N3160       N  0.67733140  0.23037353  0.03815876    -0.37300
C3161       C  0.92220178  0.25244273  0.09450334    -0.04000
C3162       C  0.89188304  0.22790997  0.09329470    -0.01100
C3163       C  0.86721431  0.23357412  0.09254972     0.03900
C3164       C  0.87241052  0.26393990  0.09364484    -0.04000
C3165       C  0.90280787  0.28855426  0.09517798    -0.01100
C3166       C  0.92767577  0.28278501  0.09554021     0.03900
C3167       C  0.88597666  0.19653984  0.09282870     0.38500
C3168       C  0.90853003  0.31970095  0.09654239     0.38500
C3169       C  0.95890367  0.30803073  0.09643501     0.36900
C3170       C  0.83655019  0.20794776  0.08971533     0.36900
N3171       N  0.98385623  0.32814286  0.09714313    -0.37900
N3172       N  0.81225028  0.18742339  0.08736159    -0.37900
N3173       N  0.91315839  0.34459919  0.09761874    -0.37300
N3174       N  0.88112755  0.17151254  0.09257353    -0.37300
C3175       C  0.58114484  0.33514096  0.08709987    -0.04000
C3176       C  0.60877875  0.34313581  0.09572228    -0.01100
C3177       C  0.63281359  0.37351262  0.09524601     0.03900
C3178       C  0.63009560  0.39606710  0.08518338    -0.04000
C3179       C  0.60177957  0.38827020  0.07716740    -0.01100
C3180       C  0.57735535  0.35763248  0.07799153     0.03900
C3181       C  0.61343166  0.31950543  0.10392593     0.38500
C3182       C  0.59809685  0.41123499  0.06751047     0.38500
C3183       C  0.54901490  0.34883980  0.06867932     0.36900
C3184       C  0.66047603  0.38099388  0.10507515     0.36900
N3185       N  0.52648515  0.34174565  0.06112109    -0.37900
N3186       N  0.68225454  0.38613112  0.11291593    -0.37900
N3187       N  0.59501620  0.42957442  0.05989395    -0.37300
N3188       N  0.61749635  0.30069499  0.11008209    -0.37300
C3189       C  0.90633814  0.11598413  0.08256826    -0.04000
C3190       C  0.88261306  0.11498071  0.07183731    -0.01100
C3191       C  0.85186982  0.09379220  0.07561343     0.03900
C3192       C  0.84428594  0.07043832  0.08832619    -0.04000
C3193       C  0.86766133  0.06914096  0.09787148    -0.01100
C3194       C  0.89865447  0.09203765  0.09519139     0.03900
C3195       C  0.88935346  0.13511929  0.05648453     0.38500
C3196       C  0.85980239  0.04405013  0.11025241     0.38500
C3197       C  0.92228447  0.09019921  0.10517418     0.36900
C3198       C  0.82777076  0.09694239  0.06692854     0.36900
N3199       N  0.94102339  0.08828209  0.11301790    -0.37900
N3200       N  0.80856991  0.09978025  0.06032729    -0.37900
N3201       N  0.85350844  0.02399724  0.12011173    -0.37300
N3202       N  0.89453343  0.15103243  0.04423094    -0.37300
C3203       C  0.55243436  0.18916279  0.17895246    -0.04000
C3204       C  0.52394451  0.16651799  0.17196088    -0.01100
C3205       C  0.51092924  0.17323584  0.15716938     0.03900
C3206       C  0.52590032  0.20264090  0.14910519    -0.04000
C3207       C  0.55354207  0.22566747  0.15653478    -0.01100
C3208       C  0.56703597  0.21886784  0.17106499     0.03900
C3209       C  0.00708048  0.13645884  0.18029986     0.38500
C3210       C  0.56854488  0.25645577  0.14912896     0.38500
C3211       C  0.59652522  0.24252757  0.17752366     0.36900
C3212       C  0.98125879  0.15007004  0.15065148     0.36900
N3213       N  0.62002915  0.26144510  0.18264303    -0.37900
N3214       N  0.95749073  0.13169364  0.14555179    -0.37900
N3215       N  0.58037881  0.28122283  0.14352182    -0.37300
N3216       N  0.99349630  0.11245388  0.18689021    -0.37300
C3217       C  0.89038409  0.33535001  0.64584615    -0.04000
C3218       C  0.91642691  0.33988773  0.65589036    -0.01100
C3219       C  0.91658334  0.34212689  0.67458109     0.03900
C3220       C  0.89112376  0.33989986  0.68370570    -0.04000
C3221       C  0.86515711  0.33518092  0.67413778    -0.01100
C3222       C  0.86456572  0.33270260  0.65535838     0.03900
C3223       C  0.94345653  0.34199558  0.64743782     0.38500
C3224       C  0.83896047  0.33285788  0.68372090     0.38500
C3225       C  0.83677382  0.32644304  0.64616064     0.36900
C3226       C  0.94299488  0.34614714  0.68460709     0.36900
N3227       N  0.81444265  0.32134316  0.63896321    -0.37900
N3228       N  0.96395646  0.34921064  0.69258416    -0.37900
N3229       N  0.81814005  0.33112189  0.69138762    -0.37300
N3230       N  0.96503953  0.34342107  0.64092831    -0.37300
C3231       C  0.83957654  0.40025408  0.35063672    -0.04000
C3232       C  0.82830449  0.37238823  0.34137322    -0.01100
C3233       C  0.83188641  0.37258986  0.32272798     0.03900
C3234       C  0.84699424  0.40064112  0.31321878    -0.04000
C3235       C  0.85923525  0.42854019  0.32253163    -0.01100
C3236       C  0.85553314  0.42836372  0.34117100     0.03900
C3237       C  0.81408420  0.34353409  0.35110637     0.38500
C3238       C  0.87452877  0.45745089  0.31285511     0.38500
C3239       C  0.86729792  0.45719248  0.35052881     0.36900
C3240       C  0.82061791  0.34389366  0.31331097     0.36900
N3241       N  0.87668367  0.48017350  0.35799324    -0.37900
N3242       N  0.81178772  0.32107104  0.30575119    -0.37900
N3243       N  0.88669686  0.48051624  0.30514668    -0.37300
N3244       N  0.80294332  0.32055183  0.35890535    -0.37300
C3245       C  0.87851597  0.35227039  0.51249713    -0.04000
C3246       C  0.88597084  0.34573259  0.49568800    -0.01100
C3247       C  0.87414647  0.35188246  0.48008762     0.03900
C3248       C  0.85596257  0.36658621  0.48099165    -0.04000
C3249       C  0.84881793  0.37321997  0.49805368    -0.01100
C3250       C  0.85872531  0.36469347  0.51360029     0.03900
C3251       C  0.90611973  0.33283524  0.49445100     0.38500
C3252       C  0.83059702  0.38811747  0.49984175     0.38500
C3253       C  0.84682207  0.36685118  0.53081827     0.36900
C3254       C  0.88116160  0.34276551  0.46322635     0.36900
N3255       N  0.83685478  0.36809965  0.54448567    -0.37900
N3256       N  0.88666124  0.33478273  0.44999681    -0.37900
N3257       N  0.81633072  0.40029051  0.50139533    -0.37300
N3258       N  0.92223852  0.32262388  0.49346288    -0.37300
C3259       C  0.66866344  0.06944649  0.64722589    -0.04000
C3260       C  0.68554261  0.05942396  0.65744405    -0.01100
C3261       C  0.68430129  0.05971596  0.67619929     0.03900
C3262       C  0.66610012  0.07004256  0.68493751    -0.04000
C3263       C  0.64905118  0.07987725  0.67467534    -0.01100
C3264       C  0.65017414  0.07939976  0.65593174     0.03900
C3265       C  0.70322759  0.04757979  0.64867909     0.38500
C3266       C  0.63146871  0.09195298  0.68333795     0.38500
C3267       C  0.63292163  0.09009516  0.64560753     0.36900
C3268       C  0.70122971  0.04857787  0.68645992     0.36900
N3269       N  0.61910294  0.09851854  0.63736689    -0.37900
N3270       N  0.71478853  0.03975051  0.69461907    -0.37900
N3271       N  0.61755556  0.10170608  0.69023633    -0.37300
N3272       N  0.71723820  0.03800939  0.64171139    -0.37300
C3273       C  0.57857176  0.45341153  0.58519876    -0.04000
C3274       C  0.56832187  0.43643679  0.56932199    -0.01100
C3275       C  0.53722548  0.41368240  0.56761682     0.03900
C3276       C  0.51648041  0.40768659  0.58182911    -0.04000
C3277       C  0.52770363  0.42221984  0.59837584    -0.01100
C3278       C  0.55869455  0.44484534  0.60004822     0.03900
C3279       C  0.58923207  0.44355822  0.55438897     0.38500
C3280       C  0.50705882  0.41570163  0.61339567     0.38500
C3281       C  0.57001974  0.46018176  0.61693654     0.36900
C3282       C  0.52655969  0.39659322  0.55122695     0.36900
N3283       N  0.57910072  0.47240163  0.63038328    -0.37900
N3284       N  0.51811301  0.38289082  0.53816439    -0.37900
N3285       N  0.99070388  0.41071273  0.62539343    -0.37300
N3286       N  0.60595238  0.44911939  0.54251128    -0.37300
C3287       C  0.79160627  0.24204069  0.57246131    -0.04000
C3288       C  0.77528455  0.22745297  0.58816676    -0.01100
C3289       C  0.75087878  0.19684625  0.58768688     0.03900
C3290       C  0.74375015  0.17969922  0.57170117    -0.04000
C3291       C  0.75866308  0.19508149  0.55576316    -0.01100
C3292       C  0.78182164  0.22626029  0.55610698     0.03900
C3293       C  0.78497146  0.24296928  0.60510708     0.38500
C3294       C  0.75177167  0.17860369  0.53910343     0.38500
C3295       C  0.79601406  0.24205793  0.53954179     0.36900
C3296       C  0.73320479  0.18308890  0.60381131     0.36900
N3297       N  0.80728332  0.25473955  0.52635707    -0.37900
N3298       N  0.71908924  0.17220536  0.61666559    -0.37900
N3299       N  0.74646688  0.16553320  0.52579156    -0.37300
N3300       N  0.79282487  0.25517992  0.61865497    -0.37300
C3301       C  0.61055077  0.44165044  0.35201906    -0.04000
C3302       C  0.58306031  0.43135617  0.34230189    -0.01100
C3303       C  0.58321269  0.42968474  0.32358437     0.03900
C3304       C  0.61084869  0.43864153  0.31421257    -0.04000
C3305       C  0.63844111  0.44956605  0.32379929    -0.01100
C3306       C  0.63828613  0.45085932  0.34259626     0.03900
C3307       C  0.55434240  0.42263986  0.35145353     0.38500
C3308       C  0.66719760  0.46009541  0.31431345     0.38500
C3309       C  0.66655790  0.46041452  0.35219218     0.36900
C3310       C  0.55449552  0.41753205  0.31402432     0.36900
N3311       N  0.68934654  0.97181182  0.35927564    -0.37900
N3312       N  0.53164149  0.40783119  0.30638550    -0.37900
N3313       N  0.68990616  0.97260774  0.30621926    -0.37300
N3314       N  0.53137056  0.41554472  0.35867876    -0.37300
C3315       C  0.98550765  0.39608578  0.42071533    -0.04000
C3316       C  0.97159183  0.40460082  0.43433904    -0.01100
C3317       C  0.94144426  0.39891260  0.43237851     0.03900
C3318       C  0.92401254  0.38287320  0.41746917    -0.04000
C3319       C  0.93612650  0.37097375  0.40501880    -0.01100
C3320       C  0.96662004  0.37707445  0.40670651     0.03900
C3321       C  0.48779426  0.41914394  0.45055522     0.38500
C3322       C  0.91802016  0.35458442  0.38970337     0.38500
C3323       C  0.97803094  0.36371099  0.39381572     0.36900
C3324       C  0.92874932  0.41084671  0.44546007     0.36900
N3325       N  0.98680829  0.35270187  0.38356150    -0.37900
N3326       N  0.91886758  0.42059736  0.45583950    -0.37900
N3327       N  0.90364020  0.34177223  0.37742122    -0.37300
N3328       N  0.50042901  0.43062351  0.46356156    -0.37300
C3329       C  0.70687243  0.44623731  0.42324281    -0.04000
C3330       C  0.70484898  0.42292902  0.41205967    -0.01100
C3331       C  0.72657079  0.41313483  0.41319716     0.03900
C3332       C  0.75201060  0.42797942  0.42478368    -0.04000
C3333       C  0.75470665  0.45230592  0.43548423    -0.01100
C3334       C  0.73164650  0.46072191  0.43510503     0.03900
C3335       C  0.67955504  0.40818908  0.39967928     0.38500
C3336       C  0.78155267  0.46931958  0.44643685     0.38500
C3337       C  0.73307202  0.48384879  0.44710032     0.36900
C3338       C  0.72163277  0.38667200  0.40291253     0.36900
N3339       N  0.73415273  0.50220544  0.45675624    -0.37900
N3340       N  0.71758586  0.36556442  0.39472421    -0.37900
N3341       N  0.80314036  0.48306354  0.45504469    -0.37300
N3342       N  0.65946943  0.39661274  0.38978590    -0.37300
C3343       C  0.62290207  0.48186999  0.48437936    -0.04000
C3344       C  0.61048911  0.99870870  0.49084692    -0.01100
C3345       C  0.62411446  0.01967574  0.50495888     0.03900
C3346       C  0.64900781  0.02115823  0.51436523    -0.04000
C3347       C  0.66186649  0.50529500  0.50778362    -0.01100
C3348       C  0.64917977  0.48501310  0.49328428     0.03900
C3349       C  0.58307856  0.99610741  0.48281452     0.38500
C3350       C  0.68935292  0.50882678  0.51624998     0.38500
C3351       C  0.66383836  0.46785412  0.48755563     0.36900
C3352       C  0.61211238  0.03957408  0.50987354     0.36900
N3353       N  0.67556614  0.45412651  0.48313091    -0.37900
N3354       N  0.60282517  0.05580107  0.51351645    -0.37900
N3355       N  0.71130055  0.51172220  0.52295963    -0.37300
N3356       N  0.56131236  0.99429809  0.47647615    -0.37300
C3357       C  0.55692255  0.16195749  0.34973092    -0.04000
C3358       C  0.52966313  0.14891454  0.33975488    -0.01100
C3359       C  0.53082509  0.14849848  0.32093500     0.03900
C3360       C  0.55943893  0.16116708  0.31181476    -0.04000
C3361       C  0.58676936  0.17442052  0.32204061    -0.01100
C3362       C  0.58541370  0.17476990  0.34078014     0.03900
C3363       C  0.50034317  0.13660159  0.34886589     0.38500
C3364       C  0.61673326  0.18818634  0.31352717     0.38500
C3365       C  0.61360746  0.18765339  0.35094162     0.36900
C3366       C  0.50230637  0.13422435  0.31114097     0.36900
N3367       N  0.63600404  0.19791246  0.35907268    -0.37900
N3368       N  0.47950212  0.12286710  0.30337795    -0.37900
N3369       N  0.64074933  0.19894096  0.30693026    -0.37300
N3370       N  0.47695720  0.12688081  0.35611962    -0.37300
C3371       C  0.62132441  0.04865151  0.41531677    -0.04000
C3372       C  0.61383599  0.05926920  0.39985911    -0.01100
C3373       C  0.60522125  0.08200147  0.40104624     0.03900
C3374       C  0.60214041  0.09288281  0.41794887    -0.04000
C3375       C  0.61276249  0.08430915  0.43320110    -0.01100
C3376       C  0.62291441  0.06279667  0.43171735     0.03900
C3377       C  0.61331343  0.04547542  0.38286969     0.38500
C3378       C  0.61162440  0.09585033  0.45067152     0.38500
C3379       C  0.63387790  0.05407575  0.44727327     0.36900
C3380       C  0.59948573  0.09394890  0.38477774     0.36900
N3381       N  0.64310797  0.04746452  0.45959423    -0.37900
N3382       N  0.59504007  0.10357239  0.37180484    -0.37900
N3383       N  0.61075210  0.10492066  0.46465594    -0.37300
N3384       N  0.61234763  0.53406235  0.36892824    -0.37300
C3385       C  0.56890610  0.32467945  0.42295106    -0.04000
C3386       C  0.55775071  0.30447366  0.43777921    -0.01100
C3387       C  0.54856794  0.27306403  0.43577838     0.03900
C3388       C  0.55056728  0.26161092  0.41897467    -0.04000
C3389       C  0.56069995  0.28146782  0.40409218    -0.01100
C3390       C  0.57025006  0.31274497  0.40604261     0.03900
C3391       C  0.55558993  0.31577836  0.45511761     0.38500
C3392       C  0.56150710  0.26966764  0.38659336     0.38500
C3393       C  0.58263787  0.33261836  0.39049845     0.36900
C3394       C  0.53825827  0.25283195  0.45119316     0.36900
N3395       N  0.59228185  0.34820334  0.37802149    -0.37900
N3396       N  0.02998447  0.23665296  0.46347643    -0.37900
N3397       N  0.56222048  0.26028888  0.37267952    -0.37300
N3398       N  0.55395673  0.32474241  0.46899529    -0.37300
C3399       C  0.73203304  0.29039539  0.42124780    -0.04000
C3400       C  0.71048625  0.29401217  0.43168839    -0.01100
C3401       C  0.67991121  0.26976374  0.43355061     0.03900
C3402       C  0.67046361  0.24148755  0.42511832    -0.04000
C3403       C  0.69224266  0.23737872  0.41530217    -0.01100
C3404       C  0.72293627  0.26164011  0.41347980     0.03900
C3405       C  0.71970000  0.32296558  0.44042874     0.38500
C3406       C  0.68274627  0.20831928  0.40665733     0.38500
C3407       C  0.74465366  0.25753809  0.40278520     0.36900
C3408       C  0.65761080  0.27460637  0.44317275     0.36900
N3409       N  0.76198743  0.25428782  0.39421757    -0.37900
N3410       N  0.63973116  0.27847980  0.45072642    -0.37900
N3411       N  0.67502495  0.18509761  0.39976724    -0.37300
N3412       N  0.72704202  0.34603676  0.44740916    -0.37300
C3413       C  0.89909111  0.01011603  0.42617287    -0.04000
C3414       C  0.92318457  0.02285983  0.43853337    -0.01100
C3415       C  0.94692447  0.05346353  0.43645153     0.03900
C3416       C  0.94647677  0.07169686  0.42217825    -0.04000
C3417       C  0.92067751  0.06007043  0.41105287    -0.01100
C3418       C  0.89710388  0.02919180  0.41295083     0.03900
C3419       C  0.92496455  0.00381361  0.45251420     0.38500
C3420       C  0.91923943  0.07926059  0.39707951     0.38500
C3421       C  0.87121292  0.01666799  0.40097276     0.36900
C3422       C  0.97281265  0.06571356  0.44846740     0.36900
N3423       N  0.85092611  0.50677992  0.39156307    -0.37900
N3424       N  0.49346311  0.07538559  0.45802742    -0.37900
N3425       N  0.91794923  0.09457922  0.38596469    -0.37300
N3426       N  0.92649089  0.98870467  0.46367586    -0.37300
C3427       C  0.93598143  0.10211805  0.65104887    -0.04000
C3428       C  0.96420239  0.11538719  0.66015090    -0.01100
C3429       C  0.96470859  0.11667924  0.67890230     0.03900
C3430       C  0.93700062  0.10468471  0.68865621    -0.04000
C3431       C  0.90877537  0.09116044  0.67956165    -0.01100
C3432       C  0.90827644  0.09008457  0.66083677     0.03900
C3433       C  0.99281678  0.12884090  0.65019700     0.38500
C3434       C  0.88009458  0.07719922  0.68950804     0.38500
C3435       C  0.87909354  0.07573496  0.65170459     0.36900
C3436       C  0.99380122  0.13129291  0.68811972     0.36900
N3437       N  0.85574864  0.06431929  0.64450775    -0.37900
N3438       N  0.51698577  0.14296211  0.69549153    -0.37900
N3439       N  0.85727943  0.06596483  0.69746962    -0.37300
N3440       N  0.51561758  0.13964109  0.64223627    -0.37300
C3441       C  0.93147162  0.25377491  0.57766395    -0.04000
C3442       C  0.92392287  0.23676100  0.59378118    -0.01100
C3443       C  0.93351206  0.21524069  0.59668130     0.03900
C3444       C  0.94901510  0.20889126  0.58308946    -0.04000
C3445       C  0.95749269  0.22653803  0.56720270    -0.01100
C3446       C  0.94889205  0.24909297  0.56456393     0.03900
C3447       C  0.90495897  0.24021908  0.60720491     0.38500
C3448       C  0.97407314  0.22087359  0.55328504     0.38500
C3449       C  0.95826401  0.26768494  0.54848322     0.36900
C3450       C  0.92719778  0.19944641  0.61376498     0.36900
N3451       N  0.96574626  0.28259270  0.53567790    -0.37900
N3452       N  0.92215795  0.18686248  0.62735280    -0.37900
N3453       N  0.48739335  0.21646341  0.54218368    -0.37300
N3454       N  0.88979995  0.24285232  0.61788854    -0.37300
C3455       C  0.88352757  0.42760605  0.57691369    -0.04000
C3456       C  0.89422419  0.44618144  0.56140188    -0.01100
C3457       C  0.89905733  0.47618770  0.56149562     0.03900
C3458       C  0.89459644  0.48842345  0.57736142    -0.04000
C3459       C  0.88113966  0.46896034  0.59234011    -0.01100
C3460       C  0.87524906  0.43841921  0.59202354     0.03900
C3461       C  0.90234114  0.43543875  0.54550298     0.38500
C3462       C  0.87389311  0.48049431  0.60820167     0.38500
C3463       C  0.86286879  0.41897857  0.60767288     0.36900
C3464       C  0.91084060  0.49499486  0.54551033     0.36900
N3465       N  0.85293368  0.40342075  0.62013763    -0.37900
N3466       N  0.92005759  0.50979059  0.53271307    -0.37900
N3467       N  0.86941619  0.99041794  0.62093829    -0.37300
N3468       N  0.90957199  0.42804254  0.53265781    -0.37300
C3469       C  0.82585290  0.06578957  0.57378189    -0.04000
C3470       C  0.81377744  0.07642736  0.56037027    -0.01100
C3471       C  0.78310642  0.06988797  0.56154416     0.03900
C3472       C  0.76441119  0.05259095  0.57602439    -0.04000
C3473       C  0.77554216  0.03972483  0.58854243    -0.01100
C3474       C  0.80617304  0.04618069  0.58740515     0.03900
C3475       C  0.83332194  0.09578695  0.54603546     0.38500
C3476       C  0.75532035  0.52133350  0.60274206     0.38500
C3477       C  0.81749606  0.03282320  0.60038917     0.36900
C3478       C  0.77105984  0.08207982  0.54826272     0.36900
N3479       N  0.82646693  0.02209072  0.61072303    -0.37900
N3480       N  0.76134861  0.09175308  0.53771475    -0.37900
N3481       N  0.73962605  0.50613358  0.61421778    -0.37300
N3482       N  0.84890245  0.11121505  0.53458725    -0.37300
C3483       C  0.54405575  0.11414373  0.58096874    -0.04000
C3484       C  0.54106440  0.09262011  0.56793056    -0.01100
C3485       C  0.56516287  0.08667374  0.56477985     0.03900
C3486       C  0.59246439  0.10240103  0.57450008    -0.04000
C3487       C  0.59640186  0.12561743  0.58650862    -0.01100
C3488       C  0.57216573  0.13155601  0.58973024     0.03900
C3489       C  0.01285267  0.07616864  0.55789733     0.38500
C3490       C  0.62509682  0.14266814  0.59592593     0.38500
C3491       C  0.57550481  0.15414612  0.60275381     0.36900
C3492       C  0.56088798  0.06271525  0.55250698     0.36900
N3493       N  0.57817539  0.17216666  0.61316704    -0.37900
N3494       N  0.55701979  0.04333275  0.54281845    -0.37900
N3495       N  0.64805198  0.15629286  0.60338136    -0.37300
N3496       N  0.99036033  0.06317359  0.54993471    -0.37300
C3497       C  0.98436785  0.12692477  0.51785250    -0.04000
C3498       C  0.96709891  0.12108173  0.50217008    -0.01100
C3499       C  0.98170992  0.12823387  0.48528027     0.03900
C3500       C  0.51422809  0.14152708  0.48363099    -0.04000
C3501       C  0.53129571  0.14621470  0.49935746    -0.01100
C3502       C  0.51662248  0.13930872  0.51625636     0.03900
C3503       C  0.93417205  0.10880031  0.50332720     0.38500
C3504       C  0.56424710  0.15886390  0.49837476     0.38500
C3505       C  0.53525583  0.14517789  0.53199973     0.36900
C3506       C  0.96250898  0.12130281  0.46967448     0.36900
N3507       N  0.55063217  0.15045815  0.54437127    -0.37900
N3508       N  0.94677578  0.11577104  0.45744007    -0.37900
N3509       N  0.59050969  0.16878304  0.49768935    -0.37300
N3510       N  0.90794303  0.09902674  0.50421342    -0.37300
Zn3511     Zn  0.94944202  0.58009625  0.59750420     1.49700
Zn3512     Zn  0.97716270  0.64064516  0.57437496     1.49400
Zn3513     Zn  0.91615592  0.58070240  0.56174713     1.49100
Zn3514     Zn  0.91489970  0.61494434  0.59614065     1.49500
O3515       O  0.93957585  0.60424535  0.58212077    -1.82800
O3516       O  0.99158798  0.59051500  0.59123240    -0.73400
O3517       O  0.98296993  0.63872897  0.54813579    -0.73200
O3518       O  0.90484248  0.53685984  0.56576671    -0.72800
O3519       O  0.51477470  0.64001142  0.58363891    -0.73400
O3520       O  0.92236542  0.53552693  0.59264778    -0.73000
O3521       O  0.94207627  0.59661419  0.53862688    -0.73600
O3522       O  0.87125158  0.58936075  0.58943319    -0.73000
O3523       O  0.97440621  0.67924414  0.57861856    -0.73800
O3524       O  0.87420722  0.57790544  0.56117594    -0.73200
O3525       O  0.92740787  0.65783469  0.59034809    -0.73600
O3526       O  0.91949607  0.61146706  0.62255751    -0.73500
O3527       O  0.94718174  0.58826249  0.62341929    -0.73300
C3528       C  0.51529451  0.61517569  0.58633520     0.78500
C3529       C  0.96856621  0.62002422  0.53573898     0.79000
C3530       C  0.90742856  0.52201572  0.57878420     0.77900
C3531       C  0.85867165  0.57828144  0.57458851     0.78300
C3532       C  0.95123731  0.68100812  0.58407857     0.79400
C3533       C  0.93365826  0.60062458  0.63125982     0.78500
Zn3534     Zn  0.57972289  0.69676759  0.40379371     1.49700
Zn3535     Zn  0.51934321  0.66444400  0.42759298     1.49400
Zn3536     Zn  0.53995041  0.62668042  0.40423992     1.49100
Zn3537     Zn  0.58024283  0.66182695  0.43817978     1.49500
O3538       O  0.55482067  0.66242023  0.41875025    -1.82800
O3539       O  0.56975302  0.72932654  0.40954139    -0.73400
O3540       O  0.97866318  0.62704155  0.42024271    -0.73200
O3541       O  0.54063715  0.63615198  0.37792921    -0.72800
O3542       O  0.52469223  0.70703589  0.42366264    -0.73400
O3543       O  0.57252969  0.68644307  0.37768653    -0.73000
O3544       O  0.49761725  0.59707268  0.41231929    -0.73600
O3545       O  0.59272803  0.62999280  0.43220764    -0.73000
O3546       O  0.51650031  0.65796114  0.45371722    -0.73800
O3547       O  0.56643332  0.60784745  0.40787280    -0.73200
O3548       O  0.55465560  0.65066121  0.46193795    -0.73600
O3549       O  0.62206311  0.70244311  0.43815330    -0.73500
O3550       O  0.62433104  0.71435986  0.40937854    -0.73300
C3551       C  0.54785624  0.73081734  0.41711840     0.78500
C3552       C  0.97547367  0.60049711  0.41764280     0.79000
C3553       C  0.55619588  0.66138235  0.36950138     0.77900
C3554       C  0.58634740  0.61123989  0.41939450     0.78300
C3555       C  0.52958897  0.65055314  0.46555784     0.79400
C3556       C  0.63724665  0.71766633  0.42437129     0.78500
Zn3557     Zn  0.61582154  0.92110076  0.43961220     1.49700
Zn3558     Zn  0.57477121  0.90869229  0.40521791     1.49400
Zn3559     Zn  0.58212299  0.95696737  0.43224180     1.49100
Zn3560     Zn  0.63801389  0.97161718  0.40715046     1.49500
O3561       O  0.60356684  0.93960196  0.42078532    -1.82800
O3562       O  0.59184202  0.87372018  0.43794064    -0.73400
O3563       O  0.53191570  0.90036873  0.40870318    -0.73200
O3564       O  0.59769237  0.96953116  0.45681229    -0.72800
O3565       O  0.57236882  0.86955862  0.41095213    -0.73400
O3566       O  0.61783256  0.94080283  0.46402833    -0.73000
O3567       O  0.53649649  0.92943174  0.43156154    -0.73600
O3568       O  0.64113870  0.51358674  0.41188628    -0.73000
O3569       O  0.58692072  0.91877679  0.37969025    -0.73800
O3570       O  0.59232122  0.49618732  0.41963758    -0.73200
O3571       O  0.63042193  0.96317710  0.38042942    -0.73600
O3572       O  0.67666085  0.96901845  0.41328303    -0.73500
O3573       O  0.65882746  0.93212344  0.43410573    -0.73300
C3574       C  0.57829727  0.85774384  0.42421958     0.78500
C3575       C  0.51966879  0.90881173  0.42053560     0.79000
C3576       C  0.61169386  0.96192462  0.46793519     0.77900
C3577       C  0.61856577  0.51795150  0.41512150     0.78300
C3578       C  0.60920855  0.94117761  0.37169867     0.79400
C3579       C  0.68007377  0.95074947  0.42374472     0.78500
Zn3580     Zn  0.63319595  0.55056567  0.59336568     1.49700
Zn3581     Zn  0.66697200  0.58815741  0.55813075     1.49400
Zn3582     Zn  0.70391937  0.58671528  0.59258423     1.49100
Zn3583     Zn  0.66806915  0.52653210  0.56997154     1.49500
O3584       O  0.66823578  0.56332420  0.57817623    -1.95400
O3585       O  0.61250016  0.57431023  0.58808426    -0.73400
O3586       O  0.70432118  0.63187044  0.55933891    -0.73200
O3587       O  0.69422771  0.58115380  0.61913799    -0.72800
O3588       O  0.63102949  0.59560377  0.56156799    -0.73400
O3589       O  0.64339509  0.55588771  0.61912450    -0.73000
O3590       O  0.72260843  0.63107995  0.58610393    -0.73600
O3591       O  0.70960729  0.52990198  0.57268032    -0.73000
O3592       O  0.66086598  0.56478713  0.53428463    -0.73800
O3593       O  0.73526577  0.57467877  0.58656998    -0.73200
O3594       O  0.66002118  0.52260923  0.54414948    -0.73600
O3595       O  0.63234137  0.98730180  0.58048235    -0.73500
O3596       O  0.60372279  0.50661498  0.58954014    -0.73300
C3597       C  0.61299609  0.59013986  0.57476751     0.78500
C3598       C  0.72213505  0.64578648  0.57237088     0.79000
C3599       C  0.66860833  0.56861326  0.62742410     0.77900
C3600       C  0.73438533  0.55189339  0.57872915     0.78300
C3601       C  0.65752282  0.53811804  0.53156489     0.79400
C3602       C  0.60678870  0.98451619  0.58546843     0.78500
Zn3603     Zn  0.79743260  0.88218118  0.40374604     1.49700
Zn3604     Zn  0.86615052  0.91953351  0.40537496     1.49400
Zn3605     Zn  0.82925148  0.91518508  0.44007966     1.49100
Zn3606     Zn  0.83085934  0.85564651  0.42505137     1.49500
O3607       O  0.83088036  0.89314193  0.41913344    -1.82800
O3608       O  0.80925372  0.88444935  0.37747581    -0.73400
O3609       O  0.88196331  0.96345337  0.41112574    -0.73200
O3610       O  0.78832455  0.91615488  0.43834037    -0.72800
O3611       O  0.85967672  0.91421331  0.37925262    -0.73400
O3612       O  0.78227912  0.91087052  0.40894600    -0.73000
O3613       O  0.86204640  0.96075432  0.43798294    -0.73600
O3614       O  0.84007983  0.85680262  0.45073985    -0.73000
O3615       O  0.89696952  0.90827569  0.41166724    -0.73800
O3616       O  0.83917614  0.89649590  0.46278302    -0.73200
O3617       O  0.86930814  0.85727388  0.41452572    -0.73600
O3618       O  0.78771303  0.81737671  0.42207758    -0.73500
O3619       O  0.76337733  0.84016266  0.41057023    -0.73300
C3620       C  0.83564203  0.89919156  0.37009467     0.78500
C3621       C  0.87958068  0.97630589  0.42506536     0.79000
C3622       C  0.77567944  0.91804774  0.42388797     0.77900
C3623       C  0.84401101  0.87368164  0.46408126     0.78300
C3624       C  0.89508156  0.88231593  0.41387429     0.79400
C3625       C  0.76288500  0.81681257  0.41759080     0.78500
Zn3626     Zn  0.92274863  0.87356054  0.56403928     1.49700
Zn3627     Zn  0.88658323  0.80376964  0.55903303     1.49400
Zn3628     Zn  0.92575591  0.83298618  0.59357260     1.49100
Zn3629     Zn  0.86424825  0.83468320  0.58916629     1.49500
O3630       O  0.89907305  0.83572836  0.57668514    -1.82800
O3631       O  0.90760946  0.86960517  0.53896518    -0.73400
O3632       O  0.91107184  0.78118396  0.56172471    -0.73200
O3633       O  0.96853237  0.86754547  0.59157188    -0.72800
O3634       O  0.88321841  0.81945451  0.53420684    -0.73400
O3635       O  0.96892634  0.89158013  0.56663714    -0.73000
O3636       O  0.92865122  0.79631721  0.58908725    -0.73600
O3637       O  0.87056965  0.83645344  0.61634792    -0.73000
O3638       O  0.84361158  0.77250686  0.56466125    -0.73800
O3639       O  0.91180434  0.83189678  0.61840120    -0.73200
O3640       O  0.82490365  0.79401579  0.58297643    -0.73600
O3641       O  0.86321258  0.87375834  0.58231848    -0.73500
O3642       O  0.91197382  0.90320054  0.57369629    -0.73300
C3643       C  0.89096478  0.84672097  0.52923667     0.78500
C3644       C  0.92383615  0.77887636  0.57591360     0.79000
C3645       C  0.98285484  0.88800187  0.57978725     0.77900
C3646       C  0.89068551  0.83474556  0.62585406     0.78300
C3647       C  0.82146083  0.77138674  0.57349950     0.79400
C3648       C  0.88590760  0.89981567  0.57778617     0.78500
Zn3649     Zn  0.53889131  0.74206239  0.06922727     1.49700
Zn3650     Zn  0.96930969  0.71071168  0.07028614     1.49400
Zn3651     Zn  0.50270841  0.68328577  0.09346409     1.49100
Zn3652     Zn  0.50538200  0.74701151  0.10415562     1.49500
O3653       O  0.50412405  0.72074309  0.08465749    -1.82800
O3654       O  0.52838969  0.73604014  0.04358089    -0.73400
O3655       O  0.93909861  0.66793850  0.07536297    -0.73200
O3656       O  0.53979326  0.68052734  0.08516672    -0.72800
O3657       O  0.97784789  0.71526132  0.04389744    -0.73400
O3658       O  0.56824307  0.72761453  0.07394132    -0.73000
O3659       O  0.96114611  0.64497325  0.08893989    -0.73600
O3660       O  0.51494379  0.73210853  0.12764464    -0.73000
O3661       O  0.94892498  0.73418736  0.07746070    -0.73800
O3662       O  0.50964707  0.68717978  0.11964042    -0.73200
O3663       O  0.96595199  0.74958597  0.10492675    -0.73600
O3664       O  0.53910783  0.79033117  0.09915294    -0.73500
O3665       O  0.55963179  0.78675776  0.07357640    -0.73300
C3666       C  0.00312947  0.72586946  0.03548745     0.78500
C3667       C  0.93748125  0.64402583  0.08212492     0.79000
C3668       C  0.56537572  0.70242438  0.07953917     0.77900
C3669       C  0.51575441  0.70762016  0.13130707     0.78300
C3670       C  0.94754068  0.74564025  0.09223476     0.79400
C3671       C  0.55794750  0.80243689  0.08625150     0.78500
Zn3672     Zn  0.59126814  0.70716122  0.23212382     1.49700
Zn3673     Zn  0.53409164  0.66157738  0.25538421     1.49400
Zn3674     Zn  0.56267126  0.63862681  0.22364677     1.49100
Zn3675     Zn  0.59859222  0.66472202  0.25920445     1.49500
O3676       O  0.57098275  0.66737361  0.24282718    -1.82800
O3677       O  0.57686263  0.73295932  0.24366900    -0.73400
O3678       O  0.99766333  0.61946027  0.24834782    -0.73200
O3679       O  0.56050280  0.65671571  0.19951505    -0.72800
O3680       O  0.52839074  0.69891070  0.25076612    -0.73400
O3681       O  0.57706885  0.70488312  0.20710664    -0.73000
O3682       O  0.52047464  0.60525557  0.22801452    -0.73600
O3683       O  0.60491997  0.63008082  0.25302017    -0.73000
O3684       O  0.54023788  0.66114000  0.28230341    -0.73800
O3685       O  0.58844860  0.61689095  0.22545930    -0.73200
O3686       O  0.58364797  0.66023649  0.28436122    -0.73600
O3687       O  0.63994342  0.70162819  0.25765034    -0.73500
O3688       O  0.63733295  0.72773950  0.23437221    -0.73300
C3689       C  0.54982239  0.72650849  0.24797532     0.78500
C3690       C  0.99743290  0.59953934  0.23769254     0.79000
C3691       C  0.56467846  0.68339553  0.19586161     0.77900
C3692       C  0.60126745  0.61379186  0.23940539     0.78300
C3693       C  0.56092601  0.66041394  0.29174396     0.79400
C3694       C  0.65252143  0.72363448  0.24654671     0.78500
Zn3695     Zn  0.80990485  0.88484007  0.25987525     1.49700
Zn3696     Zn  0.84105559  0.91745981  0.22357378     1.49400
Zn3697     Zn  0.87925354  0.91639803  0.25776052     1.49100
Zn3698     Zn  0.84009007  0.85538506  0.23655146     1.49500
O3699       O  0.84290241  0.89374062  0.24397641    -1.82800
O3700       O  0.79159884  0.91109145  0.25514559    -0.73400
O3701       O  0.87972063  0.96012393  0.22361939    -0.73200
O3702       O  0.87186494  0.91248753  0.28460917    -0.72800
O3703       O  0.80577875  0.92593524  0.22710094    -0.73400
O3704       O  0.82107192  0.88826785  0.28547201    -0.73000
O3705       O  0.89826851  0.95997873  0.25057577    -0.73600
O3706       O  0.88158565  0.85718101  0.23849452    -0.73000
O3707       O  0.83324051  0.89268653  0.20018842    -0.73800
O3708       O  0.90932460  0.90310752  0.25085178    -0.73200
O3709       O  0.83024524  0.84999351  0.21081477    -0.73600
O3710       O  0.80265517  0.81831766  0.24738501    -0.73500
O3711       O  0.77779741  0.84244118  0.25587550    -0.73300
C3712       C  0.78998708  0.92384301  0.24089887     0.78500
C3713       C  0.89845565  0.97378835  0.23630412     0.79000
C3714       C  0.84668909  0.90023629  0.29332152     0.77900
C3715       C  0.90727900  0.87949693  0.24340766     0.78300
C3716       C  0.82827496  0.86533154  0.19792190     0.79400
C3717       C  0.77804324  0.81798697  0.25211049     0.78500
Zn3718     Zn  0.74969059  0.78058933  0.09783510     1.49700
Zn3719     Zn  0.78087151  0.74428974  0.10824184     1.49400
Zn3720     Zn  0.74613491  0.72989058  0.07277478     1.49100
Zn3721     Zn  0.80784261  0.79357628  0.07612355     1.49500
O3722       O  0.77167034  0.76218707  0.08843296    -1.82800
O3723       O  0.76523924  0.79682320  0.12236614    -0.73400
O3724       O  0.75202068  0.69758112  0.10872559    -0.73200
O3725       O  0.70289483  0.72038845  0.07537942    -0.72800
O3726       O  0.78418919  0.76771324  0.13107382    -0.73400
O3727       O  0.70395471  0.75216781  0.09620809    -0.73000
O3728       O  0.74544526  0.69086835  0.07960274    -0.73600
O3729       O  0.80186139  0.78671793  0.04941801    -0.73000
O3730       O  0.82270405  0.75101415  0.10344490    -0.73800
O3731       O  0.75829187  0.74285636  0.04733502    -0.73200
O3732       O  0.84485245  0.78885894  0.08338664    -0.73600
O3733       O  0.81069293  0.83557406  0.08007849    -0.73500
O3734       O  0.76054257  0.81778811  0.08365732    -0.73300
C3735       C  0.77927469  0.78993997  0.13394079     0.78500
C3736       C  0.74337896  0.67987683  0.09521014     0.79000
C3737       C  0.68929201  0.73021487  0.08539015     0.77900
C3738       C  0.78069375  0.76616479  0.03996414     0.78300
C3739       C  0.84555646  0.76883169  0.09369534     0.79400
C3740       C  0.78748617  0.83966889  0.08051517     0.78500
Zn3741     Zn  0.71693887  0.95158363  0.09507708     1.49700
Zn3742     Zn  0.69731203  0.49295267  0.07611330     1.49400
Zn3743     Zn  0.74997418  0.51872334  0.10560178     1.49100
Zn3744     Zn  0.76153018  0.49509577  0.06878174     1.49500
O3745       O  0.73227771  0.49137686  0.08611791    -1.82800
O3746       O  0.68285761  0.92574220  0.07945490    -0.73400
O3747       O  0.69770740  0.53176484  0.08563190    -0.73200
O3748       O  0.72917356  0.49722355  0.12898684    -0.72800
O3749       O  0.65821232  0.95162731  0.08218615    -0.73400
O3750       O  0.69979725  0.94899983  0.11966299    -0.73000
O3751       O  0.73933695  0.55167545  0.10242497    -0.73600
O3752       O  0.80059495  0.53156645  0.07511835    -0.73000
O3753       O  0.70281245  0.49727331  0.04894341    -0.73800
O3754       O  0.79667779  0.53994375  0.10396532    -0.73200
O3755       O  0.74797765  0.49997694  0.04458577    -0.73600
O3756       O  0.77015176  0.95977829  0.06881301    -0.73500
O3757       O  0.74696817  0.93619417  0.09391931    -0.73300
C3758       C  0.65807064  0.92609503  0.08168757     0.78500
C3759       C  0.71767123  0.55374799  0.09507777     0.79000
C3760       C  0.70749590  0.96933456  0.13157857     0.77900
C3761       C  0.81227050  0.54554463  0.08955862     0.78300
C3762       C  0.72442587  0.50023636  0.03860365     0.79400
C3763       C  0.76458642  0.93970166  0.08082329     0.78500
Zn3764     Zn  0.58868854  0.90741637  0.22582002     1.49700
Zn3765     Zn  0.58873516  0.94620611  0.25856695     1.49400
Zn3766     Zn  0.62393163  0.91109959  0.26126788     1.49100
Zn3767     Zn  0.64973006  0.96976188  0.23675643     1.49500
O3768       O  0.61276355  0.93371270  0.24530118    -1.82800
O3769       O  0.54737026  0.90625090  0.22440686    -0.73400
O3770       O  0.59502300  0.94501249  0.28502615    -0.73200
O3771       O  0.59526879  0.86566589  0.25857831    -0.72800
O3772       O  0.54472546  0.91927302  0.25241435    -0.73400
O3773       O  0.57476077  0.86317618  0.23227321    -0.73000
O3774       O  0.62350654  0.92268920  0.28692840    -0.73600
O3775       O  0.68799615  0.97019657  0.24626324    -0.73000
O3776       O  0.60064952  0.98907694  0.25166079    -0.73800
O3777       O  0.66591419  0.92089166  0.25424510    -0.73200
O3778       O  0.64764861  0.50942315  0.23944502    -0.73600
O3779       O  0.65454029  0.96477261  0.21100918    -0.73500
O3780       O  0.61532969  0.92023764  0.20271229    -0.73300
C3781       C  0.53194988  0.90725687  0.23773388     0.78500
C3782       C  0.60984664  0.93543698  0.29423230     0.79000
C3783       C  0.57755441  0.84988828  0.24603692     0.77900
C3784       C  0.68930487  0.94580358  0.24924263     0.78300
C3785       C  0.62487487  0.51196440  0.24484364     0.79400
C3786       C  0.64131712  0.94414208  0.19937698     0.78500
Zn3787     Zn  0.91288793  0.87582869  0.73791898     1.49700
Zn3788     Zn  0.91976874  0.84034435  0.77147486     1.49400
Zn3789     Zn  0.85603870  0.83918061  0.76257512     1.49100
Zn3790     Zn  0.87897670  0.80503679  0.73773655     1.49500
O3791       O  0.89216124  0.84004696  0.75274823    -1.82800
O3792       O  0.95763080  0.89389541  0.74163047    -0.73400
O3793       O  0.89833381  0.83310079  0.79653927    -0.73200
O3794       O  0.85878789  0.88092419  0.76123934    -0.72800
O3795       O  0.96256412  0.87870382  0.76843007    -0.73400
O3796       O  0.90215788  0.90731505  0.74573377    -0.73000
O3797       O  0.85504793  0.83099267  0.78809019    -0.73600
O3798       O  0.83598912  0.77448498  0.74363497    -0.73000
O3799       O  0.92997234  0.80661236  0.76657881    -0.73800
O3800       O  0.81634449  0.80214603  0.75465973    -0.73200
O3801       O  0.90478499  0.78568830  0.74181650    -0.73600
O3802       O  0.88076105  0.81560016  0.71176126    -0.73500
O3803       O  0.90391730  0.86649567  0.71167685    -0.73300
C3804       C  0.97463372  0.89489943  0.75437286     0.78500
C3805       C  0.87158144  0.82911964  0.80013611     0.79000
C3806       C  0.88026277  0.90610866  0.75489964     0.77900
C3807       C  0.81341309  0.77671972  0.74942439     0.78300
C3808       C  0.92366959  0.78797384  0.75374250     0.79400
C3809       C  0.89135317  0.84103225  0.70350163     0.78500
Zn3810     Zn  0.75950730  0.79358703  0.89428351     1.49700
Zn3811     Zn  0.74255110  0.75091817  0.92856241     1.49400
Zn3812     Zn  0.79469082  0.75844878  0.90274385     1.49100
Zn3813     Zn  0.80567821  0.81313990  0.92777298     1.49500
O3814       O  0.77554879  0.77947466  0.91338446    -1.82800
O3815       O  0.71227275  0.77045212  0.89509548    -0.73400
O3816       O  0.73573228  0.70859155  0.92609664    -0.73200
O3817       O  0.80664220  0.77172011  0.87747944    -0.72800
O3818       O  0.70337846  0.74820515  0.92163743    -0.73400
O3819       O  0.77991528  0.79411548  0.87034168    -0.73000
O3820       O  0.76913173  0.71241214  0.90534746    -0.73600
O3821       O  0.84853271  0.81989206  0.92253824    -0.73000
O3822       O  0.75111110  0.76105135  0.95434802    -0.73800
O3823       O  0.83503613  0.77251320  0.91378980    -0.73200
O3824       O  0.79776553  0.80142203  0.95414572    -0.73600
O3825       O  0.80181806  0.85126055  0.92290640    -0.73500
O3826       O  0.77125159  0.83723700  0.89923529    -0.73300
C3827       C  0.69375731  0.75534784  0.90783483     0.78500
C3828       C  0.74717177  0.69652406  0.91612431     0.79000
C3829       C  0.79987611  0.78638039  0.86629064     0.77900
C3830       C  0.85519069  0.79918473  0.91863132     0.78300
C3831       C  0.77485529  0.78032541  0.96263518     0.79400
C3832       C  0.78703318  0.85678477  0.91101587     0.78500
Zn3833     Zn  0.70060936  0.59040581  0.73840405     1.49700
Zn3834     Zn  0.63169293  0.55824511  0.73996640     1.49400
Zn3835     Zn  0.66670575  0.53173851  0.76347210     1.49100
Zn3836     Zn  0.66923981  0.59483006  0.77399282     1.49500
O3837       O  0.66675601  0.56836685  0.75433379    -1.82800
O3838       O  0.69088554  0.58191423  0.71272250    -0.73400
O3839       O  0.60103918  0.51456758  0.74491396    -0.73200
O3840       O  0.70750333  0.53341120  0.75740088    -0.72800
O3841       O  0.64055279  0.56197304  0.71330110    -0.73400
O3842       O  0.73131849  0.57936919  0.74444194    -0.73000
O3843       O  0.62621144  0.99307051  0.75684665    -0.73600
O3844       O  0.67948248  0.58003389  0.79747963    -0.73000
O3845       O  0.61392021  0.58465857  0.74700926    -0.73800
O3846       O  0.66996130  0.53325047  0.79017188    -0.73200
O3847       O  0.63059354  0.59855432  0.77474478    -0.73600
O3848       O  0.70204822  0.63857479  0.76858752    -0.73500
O3849       O  0.71961584  0.63525781  0.74212460    -0.73300
C3850       C  0.66552236  0.57111972  0.70468029     0.78500
C3851       C  0.60173252  0.99108255  0.75043158     0.79000
C3852       C  0.73202382  0.55717240  0.75203469     0.77900
C3853       C  0.67804800  0.55455200  0.80152027     0.78300
C3854       C  0.61377368  0.59720543  0.76167086     0.79400
C3855       C  0.71891727  0.65125297  0.75495980     0.78500
Zn3856     Zn  0.76333841  0.51062768  0.92905590     1.49700
Zn3857     Zn  0.75374218  0.54899174  0.90144504     1.49400
Zn3858     Zn  0.72593117  0.98374880  0.89292718     1.49100
Zn3859     Zn  0.69822249  0.50652808  0.92503819     1.49500
O3860       O  0.73424972  0.51090733  0.91278263    -1.82800
O3861       O  0.80493948  0.54842885  0.92610571    -0.73400
O3862       O  0.73648585  0.54862107  0.87755484    -0.73200
O3863       O  0.75215192  0.96288781  0.89501771    -0.72800
O3864       O  0.79830551  0.56471178  0.90002082    -0.73400
O3865       O  0.76775399  0.97439775  0.92313859    -0.73000
O3866       O  0.72196812  0.00145550  0.86879604    -0.73600
O3867       O  0.66144093  0.96495971  0.91748579    -0.73000
O3868       O  0.74568934  0.57674514  0.91551125    -0.73800
O3869       O  0.68432264  0.95075338  0.89733116    -0.73200
O3870       O  0.69561093  0.54568923  0.92026922    -0.73600
O3871       O  0.70299845  0.00493290  0.95163929    -0.73500
O3872       O  0.74854578  0.00806338  0.95403230    -0.73300
C3873       C  0.81566022  0.56628832  0.91268236     0.78500
C3874       C  0.72482634  0.52766059  0.86600327     0.79000
C3875       C  0.76396512  0.95876707  0.90912898     0.77900
C3876       C  0.66118971  0.94497837  0.90686866     0.78300
C3877       C  0.71915175  0.57256145  0.91898852     0.79400
C3878       C  0.72460489  0.00623950  0.96111364     0.78500
Zn3879     Zn  0.53089112  0.75758252  0.89118879     1.49700
Zn3880     Zn  0.51010557  0.77446844  0.92698461     1.49400
Zn3881     Zn  0.96381014  0.72756209  0.90242280     1.49100
Zn3882     Zn  0.50455494  0.70849283  0.92204523     1.49500
O3883       O  0.50365872  0.74293955  0.91090662    -1.82800
O3884       O  0.55133713  0.80381346  0.89040507    -0.73400
O3885       O  0.97724691  0.78593619  0.92619630    -0.73200
O3886       O  0.96077719  0.70962299  0.87806378    -0.72800
O3887       O  0.54796129  0.81198166  0.91941251    -0.73400
O3888       O  0.50945560  0.73304655  0.86911457    -0.73000
O3889       O  0.94857382  0.75770050  0.90391462    -0.73600
O3890       O  0.96485308  0.66917734  0.91527656    -0.73000
O3891       O  0.51105237  0.76056921  0.95171281    -0.73800
O3892       O  0.93865146  0.69334545  0.91867788    -0.73200
O3893       O  0.50455257  0.71371956  0.94873635    -0.73600
O3894       O  0.54491536  0.71004562  0.91530927    -0.73500
O3895       O  0.56466225  0.74911010  0.89610896    -0.73300
C3896       C  0.55941370  0.82136634  0.90395433     0.78500
C3897       C  0.95511267  0.77833145  0.91556432     0.79000
C3898       C  0.98122613  0.71344444  0.86668579     0.77900
C3899       C  0.93922343  0.66872130  0.91621972     0.78300
C3900       C  0.50766230  0.73578453  0.95848755     0.79400
C3901       C  0.56714069  0.72945800  0.90556885     0.78500
Zn3902     Zn  0.95331305  0.59106501  0.74353148     1.49700
Zn3903     Zn  0.97505141  0.65076713  0.76608035     1.49400
Zn3904     Zn  0.91680973  0.62513906  0.74150154     1.49100
Zn3905     Zn  0.91273400  0.58791037  0.77701005     1.49500
O3906       O  0.93938692  0.61375394  0.75736626    -1.82800
O3907       O  0.49596998  0.60310830  0.75042539    -0.73400
O3908       O  0.97641174  0.68961619  0.75680680    -0.73200
O3909       O  0.92241762  0.61846174  0.71589701    -0.72800
O3910       O  0.51445569  0.64860059  0.76344101    -0.73400
O3911       O  0.95115603  0.59639755  0.71703652    -0.73000
O3912       O  0.93001924  0.66916877  0.74477784    -0.73600
O3913       O  0.86917985  0.57862554  0.77302866    -0.73000
O3914       O  0.96936173  0.65359028  0.79203378    -0.73800
O3915       O  0.87238072  0.60128055  0.74697189    -0.73200
O3916       O  0.92710310  0.61112230  0.80080887    -0.73600
O3917       O  0.90824739  0.54511947  0.77635114    -0.73500
O3918       O  0.92723686  0.54681004  0.74927950    -0.73300
C3919       C  0.51759112  0.62630254  0.75797872     0.78500
C3920       C  0.95432974  0.69222562  0.75039265     0.79000
C3921       C  0.93684093  0.60693821  0.70820602     0.77900
C3922       C  0.85685953  0.58478923  0.76009518     0.78300
C3923       C  0.94997568  0.63763872  0.80400832     0.79400
C3924       C  0.91204863  0.53179981  0.76292849     0.78500
C3925       C  0.97208380  0.69285017  0.85096910    -0.04000
C3926       C  0.48706355  0.67587842  0.84740736    -0.01100
C3927       C  0.97871214  0.65635835  0.83254364     0.03900
C3928       C  0.95415239  0.65215169  0.82168329    -0.04000
C3929       C  0.93782566  0.66747088  0.82591127    -0.01100
C3930       C  0.94707971  0.68816152  0.84028116     0.03900
C3931       C  0.51026714  0.67744397  0.85944382     0.38500
C3932       C  0.91236391  0.66307895  0.81491297     0.38500
C3933       C  0.93189822  0.70583881  0.84343811     0.36900
C3934       C  0.49569988  0.64084865  0.82826984     0.36900
N3935       N  0.91994331  0.72012563  0.84583467    -0.37900
N3936       N  0.50943142  0.62864989  0.82488934    -0.37900
N3937       N  0.89198242  0.65957651  0.80620052    -0.37300
N3938       N  0.52841777  0.67824430  0.86916953    -0.37300
C3939       C  0.63432216  0.91344453  0.90563292    -0.04000
C3940       C  0.63928471  0.88851478  0.90169236    -0.01100
C3941       C  0.61436133  0.85879470  0.89965568     0.03900
C3942       C  0.58436333  0.85322538  0.90231620    -0.04000
C3943       C  0.57906857  0.87758420  0.90630991    -0.01100
C3944       C  0.60394461  0.90769595  0.90789993     0.03900
C3945       C  0.66997769  0.89254468  0.90072897     0.38500
C3946       C  0.54786138  0.87151199  0.90864171     0.38500
C3947       C  0.59803161  0.93247942  0.91187788     0.36900
C3948       C  0.61975533  0.83354186  0.89574280     0.36900
N3949       N  0.59318576  0.95214262  0.91516684    -0.37900
N3950       N  0.62426658  0.81360571  0.89261251    -0.37900
N3951       N  0.52290933  0.86650435  0.91041591    -0.37300
N3952       N  0.69424083  0.89536653  0.89991310    -0.37300
C3953       C  0.84837882  0.59088285  0.91209180    -0.04000
C3954       C  0.85623184  0.61912455  0.90363999    -0.01100
C3955       C  0.88655544  0.64327499  0.90373263     0.03900
C3956       C  0.90932061  0.64058440  0.91333070    -0.04000
C3957       C  0.90201670  0.61217413  0.92118544    -0.01100
C3958       C  0.87164593  0.58728281  0.92047768     0.03900
C3959       C  0.83296515  0.62466779  0.89579562     0.38500
C3960       C  0.92531216  0.60877426  0.93055484     0.38500
C3961       C  0.86448447  0.55816557  0.92854064     0.36900
C3962       C  0.89378513  0.67121635  0.89401810     0.36900
N3963       N  0.85879251  0.53498190  0.93502920    -0.37900
N3964       N  0.89859617  0.69318021  0.88632514    -0.37900
N3965       N  0.94384430  0.60591492  0.93800298    -0.37300
N3966       N  0.81459495  0.62929759  0.88960796    -0.37300
C3967       C  0.59294543  0.61006386  0.76325729    -0.04000
C3968       C  0.56914260  0.59812033  0.77605172    -0.01100
C3969       C  0.54537868  0.60522573  0.77495888     0.03900
C3970       C  0.54595700  0.62529196  0.76153871    -0.04000
C3971       C  0.57132240  0.63972188  0.74990384    -0.01100
C3972       C  0.59460938  0.63180644  0.75058270     0.03900
C3973       C  0.56791899  0.57686877  0.78958402     0.38500
C3974       C  0.57267266  0.66154460  0.73673507     0.38500
C3975       C  0.61996326  0.64552294  0.73798803     0.36900
C3976       C  0.51923521  0.59036509  0.78696476     0.36900
N3977       N  0.64017264  0.65640860  0.72793390    -0.37900
N3978       N  0.49818551  0.57832275  0.79637114    -0.37900
N3979       N  0.57383962  0.67909897  0.72629520    -0.37300
N3980       N  0.56698353  0.55999326  0.80042364    -0.37300
C3981       C  0.82411324  0.57536785  0.76075013    -0.04000
C3982       C  0.81630620  0.59823322  0.76357046    -0.01100
C3983       C  0.78591563  0.59149306  0.76163456     0.03900
C3984       C  0.76295952  0.56186025  0.75612029    -0.04000
C3985       C  0.77055160  0.53846707  0.75413222    -0.01100
C3986       C  0.80118925  0.54522552  0.75660777     0.03900
C3987       C  0.83994268  0.62928509  0.76785038     0.38500
C3988       C  0.74770469  0.00928008  0.74680608     0.38500
C3989       C  0.80942618  0.52163974  0.75417278     0.36900
C3990       C  0.77874886  0.61568776  0.76512034     0.36900
N3991       N  0.81626846  0.00399670  0.75021388    -0.37900
N3992       N  0.77338290  0.63522425  0.76766770    -0.37900
N3993       N  0.72962090  0.98548127  0.74157495    -0.37300
N3994       N  0.85870540  0.65410211  0.77103762    -0.37300
C3995       C  0.71294482  0.53415052  0.84925999    -0.04000
C3996       C  0.73136859  0.56135229  0.83939070    -0.01100
C3997       C  0.71931954  0.56906534  0.82450102     0.03900
C3998       C  0.68861785  0.54975377  0.81923323    -0.04000
C3999       C  0.66986571  0.52319462  0.82950764    -0.01100
C4000       C  0.68193592  0.51533250  0.84435166     0.03900
C4001       C  0.76318554  0.58106720  0.84422659     0.38500
C4002       C  0.63760879  0.50479170  0.82535748     0.38500
C4003       C  0.66240170  0.98711251  0.85404806     0.36900
C4004       C  0.73898457  0.59658135  0.81431684     0.36900
N4005       N  0.64676023  0.96517159  0.86222705    -0.37900
N4006       N  0.75483032  0.61871780  0.80637149    -0.37900
N4007       N  0.61215304  0.98796990  0.82102466    -0.37300
N4008       N  0.78856654  0.59675687  0.84807653    -0.37300
C4009       C  0.88700457  0.80530191  0.91899267    -0.04000
C4010       C  0.89859121  0.79988381  0.93476651    -0.01100
C4011       C  0.92309656  0.79378867  0.93393443     0.03900
C4012       C  0.93557574  0.79263742  0.91720094    -0.04000
C4013       C  0.92651855  0.80204570  0.90176558    -0.01100
C4014       C  0.90220624  0.80830603  0.90266770     0.03900
C4015       C  0.88359172  0.79809672  0.95162172     0.38500
C4016       C  0.94180171  0.80464700  0.88489807     0.38500
C4017       C  0.89159875  0.81610237  0.88661185     0.36900
C4018       C  0.93364990  0.78638299  0.95015498     0.36900
N4019       N  0.88331413  0.82247973  0.87379280    -0.37900
N4020       N  0.94209807  0.78060861  0.96313012    -0.37900
N4021       N  0.95411858  0.80679927  0.87148393    -0.37300
N4022       N  0.87149879  0.79664161  0.96501951    -0.37300
C4023       C  0.66030035  0.74605647  0.90703737    -0.04000
C4024       C  0.64565303  0.74333408  0.89052525    -0.01100
C4025       C  0.61486047  0.73671729  0.89000396     0.03900
C4026       C  0.59761618  0.73121073  0.90589252    -0.04000
C4027       C  0.61144245  0.73202723  0.92232192    -0.01100
C4028       C  0.64261810  0.74003005  0.92298248     0.03900
C4029       C  0.66188306  0.74696575  0.87387901     0.38500
C4030       C  0.59422063  0.72668063  0.93880854     0.38500
C4031       C  0.65644055  0.74353345  0.94037629     0.36900
C4032       C  0.60111304  0.73604996  0.87294863     0.36900
N4033       N  0.66724585  0.74630634  0.95429126    -0.37900
N4034       N  0.59049282  0.73595047  0.85930660    -0.37900
N4035       N  0.58055610  0.72240361  0.95195222    -0.37300
N4036       N  0.67466447  0.74977319  0.86055326    -0.37300
C4037       C  0.71702654  0.60057660  0.92058485    -0.04000
C4038       C  0.70932870  0.61185768  0.90537814    -0.01100
C4039       C  0.71839192  0.64323361  0.90406019     0.03900
C4040       C  0.73540531  0.66331217  0.91786116    -0.04000
C4041       C  0.74167239  0.65173291  0.93345195    -0.01100
C4042       C  0.73211422  0.62033269  0.93489953     0.03900
C4043       C  0.69435742  0.59168766  0.89050189     0.38500
C4044       C  0.76040569  0.67256442  0.94730450     0.38500
C4045       C  0.73962334  0.60862152  0.95064323     0.36900
C4046       C  0.71122444  0.65509040  0.88827535     0.36900
N4047       N  0.74560681  0.59930427  0.96320046    -0.37900
N4048       N  0.70555780  0.66461248  0.87568763    -0.37900
N4049       N  0.77577723  0.68923039  0.95820079    -0.37300
N4050       N  0.68256317  0.57560569  0.87861496    -0.37300
C4051       C  0.77210041  0.93404166  0.90994391    -0.04000
C4052       C  0.78968219  0.93067958  0.89635750    -0.01100
C4053       C  0.79648545  0.90657267  0.89726411     0.03900
C4054       C  0.78539422  0.88542789  0.91160023    -0.04000
C4055       C  0.76849360  0.88921073  0.92538695    -0.01100
C4056       C  0.76200546  0.91343543  0.92464409     0.03900
C4057       C  0.80122345  0.95230114  0.88160984     0.38500
C4058       C  0.75619916  0.86703162  0.93988762     0.38500
C4059       C  0.74342877  0.91600567  0.93864782     0.36900
C4060       C  0.81550080  0.90391006  0.88365065     0.36900
N4061       N  0.72865995  0.91806792  0.94981817    -0.37900
N4062       N  0.83107803  0.90219402  0.87288374    -0.37900
N4063       N  0.74630029  0.84923617  0.95137359    -0.37300
N4064       N  0.81039857  0.96958026  0.86984931    -0.37300
C4065       C  0.50899934  0.91576441  0.75245359    -0.04000
C4066       C  0.52950900  0.91999091  0.76658280    -0.01100
C4067       C  0.56106048  0.94215039  0.76508877     0.03900
C4068       C  0.57231016  0.96135547  0.74995190    -0.04000
C4069       C  0.55311434  0.95471389  0.73508116    -0.01100
C4070       C  0.52194824  0.93190632  0.73612754     0.03900
C4071       C  0.51863093  0.90215831  0.78289782     0.38500
C4072       C  0.56562480  0.97148015  0.71848476     0.38500
C4073       C  0.50381611  0.92569153  0.72009429     0.36900
C4074       C  0.58190165  0.94525734  0.77921226     0.36900
N4075       N  0.98969617  0.92110226  0.70720933    -0.37900
N4076       N  0.59869450  0.94716408  0.79025565    -0.37900
N4077       N  0.57568911  0.48441157  0.70569820    -0.37300
N4078       N  0.51020143  0.88806901  0.79598000    -0.37300
C4079       C  0.78378231  0.74805530  0.75101997    -0.04000
C4080       C  0.76953471  0.73128302  0.73563648    -0.01100
C4081       C  0.74637149  0.70034860  0.73706336     0.03900
C4082       C  0.73873904  0.68529832  0.75389636    -0.04000
C4083       C  0.75183296  0.70285211  0.76941298    -0.01100
C4084       C  0.77369096  0.73430932  0.76793088     0.03900
C4085       C  0.77966202  0.74560875  0.71824654     0.38500
C4086       C  0.74485379  0.68843363  0.78688380     0.38500
C4087       C  0.78742056  0.75199070  0.78384666     0.36900
C4088       C  0.73069965  0.68416010  0.72107410     0.36900
N4089       N  0.79804101  0.76588329  0.79663621    -0.37900
N4090       N  0.71821156  0.67130590  0.70831922    -0.37900
N4091       N  0.73951418  0.67705627  0.80084499    -0.37300
N4092       N  0.78786091  0.75692306  0.70437010    -0.37300
C4093       C  0.88126307  0.93537733  0.75881619    -0.04000
C4094       C  0.87360128  0.95008715  0.74549530    -0.01100
C4095       C  0.88150930  0.98101810  0.74745965     0.03900
C4096       C  0.89672754  0.99733327  0.76297742    -0.04000
C4097       C  0.90177644  0.98165262  0.77702523    -0.01100
C4098       C  0.89469718  0.95093424  0.77477550     0.03900
C4099       C  0.85863546  0.93364083  0.72944555     0.38500
C4100       C  0.91885890  0.49834406  0.79264718     0.38500
C4101       C  0.90358111  0.93619131  0.78827972     0.36900
C4102       C  0.87462079  0.99624564  0.73323264     0.36900
N4103       N  0.91103822  0.92465155  0.79898807    -0.37900
N4104       N  0.86930246  0.00842686  0.72184002    -0.37900
N4105       N  0.93055394  0.51104598  0.80559552    -0.37300
N4106       N  0.84662858  0.92042498  0.71668489    -0.37300
C4107       C  0.95516190  0.72212103  0.75040900    -0.04000
C4108       C  0.94744027  0.73241842  0.73485893    -0.01100
C4109       C  0.93982676  0.75583652  0.73574351     0.03900
C4110       C  0.93811291  0.76808369  0.75245414    -0.04000
C4111       C  0.94901636  0.75986232  0.76775606    -0.01100
C4112       C  0.95782384  0.73723183  0.76663110     0.03900
C4113       C  0.94667479  0.71832936  0.71791078     0.38500
C4114       C  0.95009175  0.77340911  0.78492024     0.38500
C4115       C  0.46777585  0.72815058  0.78249108     0.36900
C4116       C  0.93400827  0.76724943  0.71927525     0.36900
N4117       N  0.47594204  0.72117588  0.79513816    -0.37900
N4118       N  0.92943932  0.77632650  0.70612643    -0.37900
N4119       N  0.45120044  0.78415936  0.79866688    -0.37300
N4120       N  0.94593891  0.70702070  0.70441638    -0.37300
C4121       C  0.85732885  0.82091791  0.81833460    -0.04000
C4122       C  0.84000601  0.83436129  0.82443560    -0.01100
C4123       C  0.82047437  0.82246570  0.83946364     0.03900
C4124       C  0.81773173  0.79668214  0.84892912    -0.04000
C4125       C  0.83504432  0.78307987  0.84264650    -0.01100
C4126       C  0.85508074  0.79552796  0.82775486     0.03900
C4127       C  0.84176378  0.86053215  0.81503722     0.38500
C4128       C  0.83154865  0.75533325  0.85089441     0.38500
C4129       C  0.87221950  0.78109347  0.82159859     0.36900
C4130       C  0.80308539  0.83708641  0.84484968     0.36900
N4131       N  0.88590981  0.76955274  0.81676924    -0.37900
N4132       N  0.78905004  0.84867578  0.84891445    -0.37900
N4133       N  0.82882260  0.73316283  0.85736180    -0.37300
N4134       N  0.84251776  0.88109068  0.80758732    -0.37300
C4135       C  0.72271923  0.50410531  0.01901335    -0.04000
C4136       C  0.69589659  0.98351205  0.00909303    -0.01100
C4137       C  0.69610155  0.98469932  0.99025637     0.03900
C4138       C  0.72303855  0.50687064  0.98119846    -0.04000
C4139       C  0.74886708  0.52810735  0.99092203    -0.01100
C4140       C  0.74890361  0.52642439  0.00963736     0.03900
C4141       C  0.66890622  0.96038754  0.01846868     0.38500
C4142       C  0.77544439  0.55223373  0.98168069     0.38500
C4143       C  0.77623755  0.54781304  0.01916961     0.36900
C4144       C  0.66956190  0.96238407  0.98052228     0.36900
N4145       N  0.79832489  0.56479835  0.02655211    -0.37900
N4146       N  0.64840900  0.94449336  0.97277161    -0.37900
N4147       N  0.79657376  0.57152527  0.97433154    -0.37300
N4148       N  0.64737974  0.94196412  0.02596384    -0.37300
C4149       C  0.65787537  0.94846656  0.18193954    -0.04000
C4150       C  0.64176978  0.93861041  0.16574157    -0.01100
C4151       C  0.65791719  0.94499808  0.14935241     0.03900
C4152       C  0.69043356  0.96090816  0.14889772    -0.04000
C4153       C  0.70653067  0.96967581  0.16503188    -0.01100
C4154       C  0.69056283  0.96378400  0.18138226     0.03900
C4155       C  0.60854095  0.92327353  0.16572891     0.38500
C4156       C  0.73977188  0.98433911  0.16486156     0.38500
C4157       C  0.70846809  0.97386556  0.19754009     0.36900
C4158       C  0.64077961  0.93666695  0.13290946     0.36900
N4159       N  0.72345070  0.98265653  0.21012846    -0.37900
N4160       N  0.62663390  0.93004110  0.11996506    -0.37900
N4161       N  0.76667830  0.49651227  0.16493197    -0.37300
N4162       N  0.58203502  0.91104278  0.16568709    -0.37300
C4163       C  0.78105317  0.76984275  0.02001751    -0.04000
C4164       C  0.76373357  0.74400036  0.00909753    -0.01100
C4165       C  0.76043714  0.74760335  0.99073274     0.03900
C4166       C  0.77626576  0.77703191  0.98247727    -0.04000
C4167       C  0.79435024  0.80278976  0.99324124    -0.01100
C4168       C  0.79660792  0.79934449  0.01179691     0.03900
C4169       C  0.74975391  0.71310256  0.01648395     0.38500
C4170       C  0.80965006  0.83340232  0.98546422     0.38500
C4171       C  0.81452642  0.82662932  0.02229220     0.36900
C4172       C  0.74027599  0.72054883  0.98056437     0.36900
N4173       N  0.82891055  0.84854425  0.03056352    -0.37900
N4174       N  0.72361762  0.69888082  0.97269252    -0.37900
N4175       N  0.82182238  0.85779670  0.97932613    -0.37300
N4176       N  0.73865871  0.68847660  0.02224817    -0.37300
C4177       C  0.79072032  0.87036760  0.07838945    -0.04000
C4178       C  0.77787686  0.87658484  0.06337105    -0.01100
C4179       C  0.77186341  0.90116077  0.06357478     0.03900
C4180       C  0.77738602  0.91880019  0.07913169    -0.04000
C4181       C  0.79213453  0.91385457  0.09369159    -0.01100
C4182       C  0.79895980  0.88981060  0.09326705     0.03900
C4183       C  0.76846318  0.85612113  0.04825525     0.38500
C4184       C  0.79962011  0.93303816  0.10930017     0.38500
C4185       C  0.81202158  0.88338738  0.10875935     0.36900
C4186       C  0.75773857  0.90665096  0.04824659     0.36900
N4187       N  0.82235491  0.87816196  0.12111369    -0.37900
N4188       N  0.74656390  0.91109480  0.03600718    -0.37900
N4189       N  0.80560258  0.94831948  0.12176445    -0.37300
N4190       N  0.76049937  0.83969613  0.03624922    -0.37300
C4191       C  0.73131390  0.64591623  0.09724742    -0.04000
C4192       C  0.74007016  0.63380386  0.11169514    -0.01100
C4193       C  0.73221397  0.60260026  0.11193036     0.03900
C4194       C  0.71742527  0.58341387  0.09716718    -0.04000
C4195       C  0.70581221  0.59458388  0.08371576    -0.01100
C4196       C  0.71192780  0.62526763  0.08406240     0.03900
C4197       C  0.75832993  0.65340057  0.12610111     0.38500
C4198       C  0.68851252  0.57516190  0.06902172     0.38500
C4199       C  0.69780368  0.63530105  0.07079924     0.36900
C4200       C  0.73932223  0.59030755  0.12758904     0.36900
N4201       N  0.68642483  0.64322659  0.06027196    -0.37900
N4202       N  0.74487627  0.58052733  0.14010938    -0.37900
N4203       N  0.67469253  0.55981587  0.05725884    -0.37300
N4204       N  0.77293719  0.66887741  0.13762416    -0.37300
C4205       C  0.93628706  0.87973843  0.23948856    -0.04000
C4206       C  0.94820769  0.86714414  0.25170593    -0.01100
C4207       C  0.97900734  0.87411568  0.25016689     0.03900
C4208       C  0.99824244  0.89437986  0.23664297    -0.04000
C4209       C  0.98553409  0.90489078  0.22356184    -0.01100
C4210       C  0.95450824  0.89728090  0.22489343     0.03900
C4211       C  0.92918022  0.84817982  0.26630119     0.38500
C4212       C  0.00486935  0.92541855  0.20954312     0.38500
C4213       C  0.94159387  0.90862727  0.21165468     0.36900
C4214       C  0.49110234  0.86079628  0.26267877     0.36900
N4215       N  0.93122622  0.91760358  0.20109696    -0.37900
N4216       N  0.50080291  0.85011035  0.27257426    -0.37900
N4217       N  0.02037131  0.94191056  0.19841729    -0.37300
N4218       N  0.91398318  0.83305042  0.27795118    -0.37300
C4219       C  0.76742231  0.93446097  0.24038673    -0.04000
C4220       C  0.76976518  0.95713035  0.25233375    -0.01100
C4221       C  0.74488615  0.96242527  0.25463950     0.03900
C4222       C  0.71754309  0.94468283  0.24519503    -0.04000
C4223       C  0.71606985  0.92347219  0.23237776    -0.01100
C4224       C  0.74090818  0.91835343  0.23000912     0.03900
C4225       C  0.79749132  0.97432192  0.26259550     0.38500
C4226       C  0.68869797  0.90650947  0.22172350     0.38500
C4227       C  0.73809350  0.89466039  0.21793863     0.36900
C4228       C  0.74749036  0.48481802  0.26777501     0.36900
N4229       N  0.73554672  0.87550364  0.20844695    -0.37900
N4230       N  0.74916425  0.50268725  0.27800984    -0.37900
N4231       N  0.66694106  0.89305060  0.21320395    -0.37300
N4232       N  0.82020865  0.48762865  0.27109429    -0.37300
C4233       C  0.79193291  0.80958286  0.15039479    -0.04000
C4234       C  0.78193930  0.83046343  0.15562650    -0.01100
C4235       C  0.79593831  0.85084202  0.16999938     0.03900
C4236       C  0.81862339  0.84942274  0.18030581    -0.04000
C4237       C  0.82910126  0.82919063  0.17498779    -0.01100
C4238       C  0.81638504  0.80993574  0.16008300     0.03900
C4239       C  0.75664591  0.83088385  0.14664927     0.38500
C4240       C  0.85383368  0.82865525  0.18463366     0.38500
C4241       C  0.82956752  0.79124858  0.15464263     0.36900
C4242       C  0.78663710  0.87317710  0.17419748     0.36900
N4243       N  0.84028958  0.77652515  0.15035907    -0.37900
N4244       N  0.77958383  0.89136919  0.17724305    -0.37900
N4245       N  0.87343948  0.82810635  0.19233660    -0.37300
N4246       N  0.73647985  0.83137940  0.13959198    -0.37300
C4247       C  0.62490000  0.54151827  0.24347841    -0.04000
C4248       C  0.61787324  0.55287565  0.25880394    -0.01100
C4249       C  0.61068354  0.57654154  0.25747966     0.03900
C4250       C  0.61099965  0.58991747  0.24064252    -0.04000
C4251       C  0.62009112  0.57975252  0.22540376    -0.01100
C4252       C  0.62701917  0.55568374  0.22684805     0.03900
C4253       C  0.61759622  0.53969704  0.27612204     0.38500
C4254       C  0.62240346  0.59390571  0.20818839     0.38500
C4255       C  0.63511206  0.54465667  0.21109181     0.36900
C4256       C  0.60143296  0.58562690  0.27363611     0.36900
N4257       N  0.64166529  0.53591982  0.19852651    -0.37900
N4258       N  0.59417716  0.59277167  0.28657913    -0.37900
N4259       N  0.62424525  0.60512937  0.19442095    -0.37300
N4260       N  0.61736134  0.52913039  0.28987445    -0.37300
C4261       C  0.54427836  0.75268577  0.24875571    -0.04000
C4262       C  0.55004602  0.76935801  0.26458803    -0.01100
C4263       C  0.55767508  0.80045105  0.26397159     0.03900
C4264       C  0.56090484  0.81540026  0.24731751    -0.04000
C4265       C  0.54995222  0.79691451  0.23186311    -0.01100
C4266       C  0.54192696  0.76574100  0.23264750     0.03900
C4267       C  0.54988006  0.75492111  0.28137798     0.38500
C4268       C  0.54775890  0.80964867  0.21493696     0.38500
C4269       C  0.03310839  0.74742292  0.21660746     0.36900
C4270       C  0.56199804  0.81674042  0.28053871     0.36900
N4271       N  0.02599905  0.73279125  0.20383966    -0.37900
N4272       N  0.56519132  0.82961587  0.29377437    -0.37900
N4273       N  0.04568092  0.81954096  0.20141367    -0.37300
N4274       N  0.54969681  0.74332473  0.29475110    -0.37300
C4275       C  0.92345054  0.50595387  0.23439935    -0.04000
C4276       C  0.95402021  0.51271115  0.23654256    -0.01100
C4277       C  0.97767249  0.54319217  0.23807218     0.03900
C4278       C  0.97124551  0.56760990  0.23715844    -0.04000
C4279       C  0.94065625  0.56094616  0.23481813    -0.01100
C4280       C  0.91677941  0.53010046  0.23330933     0.03900
C4281       C  0.96072627  0.98811307  0.23727897     0.38500
C4282       C  0.93376647  0.58568188  0.23390311     0.38500
C4283       C  0.88532704  0.52313376  0.23117549     0.36900
C4284       C  0.50860174  0.54908994  0.24138254     0.36900
N4285       N  0.86020704  0.51750948  0.22941609    -0.37900
N4286       N  0.53309406  0.55343873  0.24401808    -0.37900
N4287       N  0.92822455  0.60541973  0.23326025    -0.37300
N4288       N  0.96659495  0.96860624  0.23793765    -0.37300
C4289       C  0.74804272  0.78932599  0.25238909    -0.04000
C4290       C  0.73806693  0.77023588  0.23726430    -0.01100
C4291       C  0.70676364  0.74826369  0.23541848     0.03900
C4292       C  0.68544779  0.74555056  0.24855687    -0.04000
C4293       C  0.69559331  0.76338345  0.26406975    -0.01100
C4294       C  0.72682599  0.78483371  0.26612406     0.03900
C4295       C  0.75944887  0.77444918  0.22304194     0.38500
C4296       C  0.67356830  0.76111873  0.27741951     0.38500
C4297       C  0.73692889  0.80307240  0.28218869     0.36900
C4298       C  0.69638630  0.72864663  0.21994124     0.36900
N4299       N  0.74485200  0.81767728  0.29495830    -0.37900
N4300       N  0.68808595  0.71292311  0.20762643    -0.37900
N4301       N  0.65597288  0.75956213  0.28794237    -0.37300
N4302       N  0.77641999  0.77775169  0.21165839    -0.37300
C4303       C  0.50689777  0.73270383  0.97824955    -0.04000
C4304       C  0.48737404  0.70412322  0.98671887    -0.01100
C4305       C  0.48611165  0.70174357  0.00545623     0.03900
C4306       C  0.50374178  0.72792150  0.01586320    -0.04000
C4307       C  0.02270904  0.75649322  0.00752457    -0.01100
C4308       C  0.02473125  0.75883872  0.98886501     0.03900
C4309       C  0.46761358  0.67725065  0.97632534     0.38500
C4310       C  0.03942830  0.78388616  0.01819700     0.38500
C4311       C  0.04571974  0.78830357  0.98076094     0.36900
C4312       C  0.46715847  0.67219291  0.01402429     0.36900
N4313       N  0.06239386  0.81185619  0.97436882    -0.37900
N4314       N  0.45213483  0.64859903  0.02083682    -0.37900
N4315       N  0.05256266  0.80567395  0.02673191    -0.37300
N4316       N  0.45173735  0.65577040  0.96810781    -0.37300
C4317       C  0.65575470  0.71680106  0.08360391    -0.04000
C4318       C  0.64305067  0.71508919  0.06659784    -0.01100
C4319       C  0.61206170  0.70702817  0.06506010     0.03900
C4320       C  0.59356592  0.70030208  0.08042369    -0.04000
C4321       C  0.60540173  0.69888232  0.09719134    -0.01100
C4322       C  0.63655163  0.70736213  0.09879241     0.03900
C4323       C  0.66227362  0.72381051  0.05074703     0.38500
C4324       C  0.58622371  0.69086534  0.11300012     0.38500
C4325       C  0.64897580  0.70690124  0.11610267     0.36900
C4326       C  0.59946812  0.70703801  0.04771765     0.36900
N4327       N  0.65891360  0.70654565  0.12990063    -0.37900
N4328       N  0.58942613  0.70711625  0.03390855    -0.37900
N4329       N  0.57111687  0.68439018  0.12569404    -0.37300
N4330       N  0.67760196  0.73075451  0.03812102    -0.37300
C4331       C  0.92216990  0.75228579  0.09456477    -0.04000
C4332       C  0.89182529  0.72778440  0.09340866    -0.01100
C4333       C  0.86718275  0.73349992  0.09271587     0.03900
C4334       C  0.87244043  0.76389582  0.09375492    -0.04000
C4335       C  0.90287058  0.78847904  0.09522077    -0.01100
C4336       C  0.92769956  0.78264824  0.09559389     0.03900
C4337       C  0.88586849  0.69639516  0.09293764     0.38500
C4338       C  0.90867502  0.81966521  0.09648228     0.38500
C4339       C  0.95894908  0.80785138  0.09650273     0.36900
C4340       C  0.83647567  0.70788652  0.08998538     0.36900
N4341       N  0.98392049  0.82792069  0.09723569    -0.37900
N4342       N  0.81214141  0.68736471  0.08771778    -0.37900
N4343       N  0.91338224  0.84460085  0.09746459    -0.37300
N4344       N  0.88099335  0.67135869  0.09266762    -0.37300
C4345       C  0.58116187  0.83504855  0.08688070    -0.04000
C4346       C  0.60886307  0.84305237  0.09542340    -0.01100
C4347       C  0.63288722  0.87343136  0.09491360     0.03900
C4348       C  0.63007390  0.89597986  0.08490496    -0.04000
C4349       C  0.60169008  0.88817560  0.07697940    -0.01100
C4350       C  0.57728614  0.85753184  0.07782817     0.03900
C4351       C  0.61356490  0.81943643  0.10360568     0.38500
C4352       C  0.59790565  0.91114578  0.06740087     0.38500
C4353       C  0.54886787  0.84872755  0.06860281     0.36900
C4354       C  0.66062279  0.88092661  0.10466683     0.36900
N4355       N  0.52627401  0.84162201  0.06111380    -0.37900
N4356       N  0.68245424  0.88607096  0.11245202    -0.37900
N4357       N  0.59474437  0.92949166  0.05985070    -0.37300
N4358       N  0.61765363  0.80063710  0.10975579    -0.37300
C4359       C  0.90650215  0.61573939  0.08268306    -0.04000
C4360       C  0.88278281  0.61471138  0.07194259    -0.01100
C4361       C  0.85203815  0.59368718  0.07580566     0.03900
C4362       C  0.84443282  0.57040647  0.08856894    -0.04000
C4363       C  0.86779885  0.56906122  0.09809853    -0.01100
C4364       C  0.89880922  0.59187527  0.09536329     0.03900
C4365       C  0.88954051  0.63463626  0.05648530     0.38500
C4366       C  0.85991090  0.54402641  0.11052630     0.38500
C4367       C  0.92244357  0.59003028  0.10533617     0.36900
C4368       C  0.82797173  0.59694999  0.06716621     0.36900
N4369       N  0.94118394  0.58810179  0.11317105    -0.37900
N4370       N  0.80879775  0.59988770  0.06061094    -0.37900
N4371       N  0.85359669  0.52401953  0.12042441    -0.37300
N4372       N  0.89474573  0.65036853  0.04414238    -0.37300
C4373       C  0.55267508  0.68941074  0.17891748    -0.04000
C4374       C  0.52430787  0.66667647  0.17184314    -0.01100
C4375       C  0.51122798  0.67340296  0.15709208     0.03900
C4376       C  0.52612398  0.70283116  0.14905993    -0.04000
C4377       C  0.55370126  0.72591265  0.15652025    -0.01100
C4378       C  0.56715202  0.71917307  0.17109969     0.03900
C4379       C  0.00765846  0.63646630  0.18003187     0.38500
C4380       C  0.56871321  0.75667455  0.14907000     0.38500
C4381       C  0.59647856  0.74295529  0.17767401     0.36900
C4382       C  0.98156526  0.65019510  0.15057956     0.36900
N4383       N  0.61984608  0.76198285  0.18288671    -0.37900
N4384       N  0.95779782  0.63180550  0.14548697    -0.37900
N4385       N  0.58056801  0.78140439  0.14340317    -0.37300
N4386       N  0.99425947  0.61232935  0.18648141    -0.37300
C4387       C  0.89052112  0.83678119  0.64593284    -0.04000
C4388       C  0.91717508  0.84300963  0.65588390    -0.01100
C4389       C  0.91718813  0.84479148  0.67459359     0.03900
C4390       C  0.89110031  0.84084486  0.68380549    -0.04000
C4391       C  0.86468497  0.83491975  0.67428993    -0.01100
C4392       C  0.86419516  0.83270083  0.65549555     0.03900
C4393       C  0.94508961  0.84760813  0.64727449     0.38500
C4394       C  0.83793910  0.83111140  0.68393570     0.38500
C4395       C  0.83607535  0.82532415  0.64631246     0.36900
C4396       C  0.94407767  0.84998006  0.68454128     0.36900
N4397       N  0.81350503  0.81940182  0.63912354    -0.37900
N4398       N  0.96540440  0.85390942  0.69245739    -0.37900
N4399       N  0.81667969  0.82821753  0.69164851    -0.37300
N4400       N  0.96740576  0.85102664  0.64064023    -0.37300
C4401       C  0.83895282  0.89934966  0.35044277    -0.04000
C4402       C  0.82769853  0.87156034  0.34109728    -0.01100
C4403       C  0.83139041  0.87193546  0.32245662     0.03900
C4404       C  0.84652769  0.90007550  0.31303997    -0.04000
C4405       C  0.85863018  0.92788787  0.32241992    -0.01100
C4406       C  0.85482629  0.92754572  0.34104980     0.03900
C4407       C  0.81329298  0.84260291  0.35072600     0.38500
C4408       C  0.87386353  0.95687683  0.31281674     0.38500
C4409       C  0.86630953  0.95629381  0.35046235     0.36900
C4410       C  0.82018303  0.84333262  0.31294505     0.36900
N4411       N  0.87544400  0.97920801  0.35796786    -0.37900
N4412       N  0.81140536  0.82058816  0.30530865    -0.37900
N4413       N  0.88597901  0.97999988  0.30516457    -0.37300
N4414       N  0.80195977  0.81952539  0.35843111    -0.37300
C4415       C  0.87828007  0.85228719  0.51255764    -0.04000
C4416       C  0.88637268  0.84638976  0.49576018    -0.01100
C4417       C  0.87452724  0.85240207  0.48012181     0.03900
C4418       C  0.85577306  0.86648826  0.48097042    -0.04000
C4419       C  0.84806407  0.87259355  0.49801947    -0.01100
C4420       C  0.85799899  0.86414950  0.51359976     0.03900
C4421       C  0.90726474  0.83436287  0.49457549     0.38500
C4422       C  0.82919615  0.88680029  0.49974331     0.38500
C4423       C  0.84578338  0.86596518  0.53078434     0.36900
C4424       C  0.88201435  0.84366295  0.46328322     0.36900
N4425       N  0.83560593  0.86698059  0.54442720    -0.37900
N4426       N  0.88786124  0.83590655  0.45008389    -0.37900
N4427       N  0.81438774  0.89840461  0.50123912    -0.37300
N4428       N  0.92401100  0.82488930  0.49363193    -0.37300
C4429       C  0.66772499  0.56902869  0.64717433    -0.04000
C4430       C  0.68426320  0.55849709  0.65729888    -0.01100
C4431       C  0.68313716  0.55869925  0.67605714     0.03900
C4432       C  0.66544467  0.56951088  0.68490111    -0.04000
C4433       C  0.64869381  0.57982998  0.67473300    -0.01100
C4434       C  0.64961790  0.57934155  0.65597546     0.03900
C4435       C  0.70143511  0.54619005  0.64842048     0.38500
C4436       C  0.63166665  0.59241870  0.68350674     0.38500
C4437       C  0.63252576  0.59032168  0.64573435     0.36900
C4438       C  0.69963099  0.54695020  0.68621389     0.36900
N4439       N  0.61881358  0.59895484  0.63756282    -0.37900
N4440       N  0.71282991  0.53760932  0.69428438    -0.37900
N4441       N  0.61821542  0.60259936  0.69049554    -0.37300
N4442       N  0.71501527  0.53624357  0.64134523    -0.37300
C4443       C  0.57837003  0.95431217  0.58578186    -0.04000
C4444       C  0.56848083  0.93639919  0.57021653    -0.01100
C4445       C  0.53734999  0.91374724  0.56841909     0.03900
C4446       C  0.51617299  0.90894926  0.58217797    -0.04000
C4447       C  0.52687699  0.92464825  0.59844903    -0.01100
C4448       C  0.55793419  0.94694984  0.60028854     0.03900
C4449       C  0.58982184  0.94239768  0.55565805     0.38500
C4450       C  0.50563908  0.91968654  0.61291577     0.38500
C4451       C  0.56877139  0.96318787  0.61697449     0.36900
C4452       C  0.52709518  0.89548796  0.55241566     0.36900
N4453       N  0.57747553  0.97613919  0.63025417    -0.37900
N4454       N  0.51897302  0.88082432  0.53967504    -0.37900
N4455       N  0.98881367  0.91603188  0.62444909    -0.37300
N4456       N  0.60688005  0.94708094  0.54407825    -0.37300
C4457       C  0.79155120  0.74210283  0.57275029    -0.04000
C4458       C  0.77550100  0.72735953  0.58849300    -0.01100
C4459       C  0.75093292  0.69683526  0.58798911     0.03900
C4460       C  0.74339095  0.67987004  0.57192430    -0.04000
C4461       C  0.75804789  0.69542188  0.55596636    -0.01100
C4462       C  0.78141220  0.72653085  0.55635823     0.03900
C4463       C  0.78566093  0.74260676  0.60547603     0.38500
C4464       C  0.75058054  0.67921473  0.53920146     0.38500
C4465       C  0.79543663  0.74247601  0.53980034     0.36900
C4466       C  0.73344626  0.68300729  0.60415833     0.36900
N4467       N  0.80657545  0.75527301  0.52662201    -0.37900
N4468       N  0.71945074  0.67206946  0.61704111    -0.37900
N4469       N  0.74478945  0.66637547  0.52579690    -0.37300
N4470       N  0.79391182  0.75458662  0.61905740    -0.37300
C4471       C  0.60993653  0.94128309  0.35176808    -0.04000
C4472       C  0.58221062  0.92953366  0.34208793    -0.01100
C4473       C  0.58236391  0.92771302  0.32337572     0.03900
C4474       C  0.61020577  0.93822963  0.31395144    -0.04000
C4475       C  0.63799128  0.95066570  0.32345773    -0.01100
C4476       C  0.63787333  0.95192167  0.34225969     0.03900
C4477       C  0.55323563  0.91956062  0.35124274     0.38500
C4478       C  0.66686601  0.96280367  0.31386743     0.38500
C4479       C  0.66649404  0.96302888  0.35174393     0.36900
C4480       C  0.55351405  0.91378280  0.31385551     0.36900
N4481       N  0.68910050  0.46793622  0.35983535    -0.37900
N4482       N  0.53056480  0.90261093  0.30623992    -0.37900
N4483       N  0.69015123  0.46858412  0.30675369    -0.37300
N4484       N  0.53005922  0.91150159  0.35845973    -0.37300
C4485       C  0.98548572  0.89573095  0.42088121    -0.04000
C4486       C  0.97164594  0.90486152  0.43423009    -0.01100
C4487       C  0.94154588  0.89922619  0.43210614     0.03900
C4488       C  0.92410530  0.88273960  0.41730112    -0.04000
C4489       C  0.93611794  0.87024732  0.40517631    -0.01100
C4490       C  0.96651853  0.87615674  0.40707801     0.03900
C4491       C  0.48783531  0.91994702  0.45034281     0.38500
C4492       C  0.91801005  0.85335726  0.38997750     0.38500
C4493       C  0.97769506  0.86181977  0.39471120     0.36900
C4494       C  0.92882342  0.91149342  0.44496036     0.36900
N4495       N  0.98629124  0.85001903  0.38489828    -0.37900
N4496       N  0.91885320  0.92143275  0.45516109    -0.37900
N4497       N  0.90364689  0.84015040  0.37777581    -0.37300
N4498       N  0.50043567  0.93182620  0.46328148    -0.37300
C4499       C  0.70753897  0.94721009  0.42240049    -0.04000
C4500       C  0.70703461  0.92623139  0.40989917    -0.01100
C4501       C  0.72827810  0.91578276  0.41097515     0.03900
C4502       C  0.75207227  0.92803201  0.42383279    -0.04000
C4503       C  0.75347428  0.95043557  0.43576800    -0.01100
C4504       C  0.73061728  0.95911459  0.43543734     0.03900
C4505       C  0.68349157  0.91419346  0.39631773     0.38500
C4506       C  0.77871279  0.96518122  0.44809588     0.38500
C4507       C  0.73049603  0.97990306  0.44867502     0.36900
C4508       C  0.72419128  0.89104878  0.39933400     0.36900
N4509       N  0.73033721  0.99638801  0.45930479    -0.37900
N4510       N  0.72077525  0.87129090  0.39007011    -0.37900
N4511       N  0.79900825  0.97713709  0.45783024    -0.37300
N4512       N  0.66480913  0.90476387  0.38548004    -0.37300
C4513       C  0.62283766  0.98007917  0.48497341    -0.04000
C4514       C  0.61000216  0.49992090  0.49041069    -0.01100
C4515       C  0.62329707  0.52070609  0.50464119     0.03900
C4516       C  0.64864283  0.52279253  0.51382959    -0.04000
C4517       C  0.66137674  0.00269070  0.50868483    -0.01100
C4518       C  0.64841404  0.98225769  0.49426220     0.03900
C4519       C  0.58248521  0.49699397  0.48234534     0.38500
C4520       C  0.68833000  0.00539431  0.51742144     0.38500
C4521       C  0.66183156  0.96364556  0.48918489     0.36900
C4522       C  0.61043873  0.53969025  0.50995893     0.36900
N4523       N  0.67252152  0.94869732  0.48532969    -0.37900
N4524       N  0.60042976  0.55515839  0.51395773    -0.37900
N4525       N  0.70985834  0.00764570  0.52434650    -0.37300
N4526       N  0.56065990  0.49495803  0.47595079    -0.37300
C4527       C  0.55688740  0.66146905  0.34968985    -0.04000
C4528       C  0.52959463  0.64840176  0.33973227    -0.01100
C4529       C  0.53069983  0.64797049  0.32090664     0.03900
C4530       C  0.55928009  0.66058900  0.31175587    -0.04000
C4531       C  0.58663416  0.67369370  0.32196503    -0.01100
C4532       C  0.58533848  0.67410624  0.34070660     0.03900
C4533       C  0.50028686  0.63601542  0.34886497     0.38500
C4534       C  0.61657333  0.68720034  0.31343646     0.38500
C4535       C  0.61355546  0.68682412  0.35083641     0.36900
C4536       C  0.50215526  0.63370864  0.31113624     0.36900
N4537       N  0.63597861  0.69694283  0.35893507    -0.37900
N4538       N  0.47933189  0.62235436  0.30339159    -0.37900
N4539       N  0.64055809  0.69772421  0.30681990    -0.37300
N4540       N  0.47690197  0.62619955  0.35613143    -0.37300
C4541       C  0.62175890  0.54877649  0.41483565    -0.04000
C4542       C  0.61373162  0.55909371  0.39946110    -0.01100
C4543       C  0.60484297  0.58160706  0.40073777     0.03900
C4544       C  0.60205385  0.59258982  0.41767442    -0.04000
C4545       C  0.61316632  0.58429604  0.43282882    -0.01100
C4546       C  0.62359621  0.56301238  0.43123410     0.03900
C4547       C  0.61299218  0.54521295  0.38246493     0.38500
C4548       C  0.61221259  0.59583536  0.45033111     0.38500
C4549       C  0.63496240  0.55450686  0.44669888     0.36900
C4550       C  0.59847044  0.59315951  0.38451957     0.36900
N4551       N  0.64449055  0.54806185  0.45895022    -0.37900
N4552       N  0.59349188  0.60243485  0.37158071    -0.37900
N4553       N  0.61147281  0.60488871  0.46434282    -0.37300
N4554       N  0.61282846  0.03439385  0.36933384    -0.37300
C4555       C  0.56948648  0.82473902  0.42278306    -0.04000
C4556       C  0.55697842  0.80422708  0.43738753    -0.01100
C4557       C  0.54767877  0.77280794  0.43532410     0.03900
C4558       C  0.55096734  0.76169998  0.41866995    -0.04000
C4559       C  0.56231603  0.78192515  0.40395525    -0.01100
C4560       C  0.57206474  0.81321706  0.40602070     0.03900
C4561       C  0.55350864  0.81526187  0.45453591     0.38500
C4562       C  0.56402499  0.77049138  0.38650402     0.38500
C4563       C  0.58598637  0.83360826  0.39081901     0.36900
C4564       C  0.53574501  0.75220088  0.45053224     0.36900
N4565       N  0.59692519  0.84966737  0.37863828    -0.37900
N4566       N  0.02611116  0.73573119  0.46264837    -0.37900
N4567       N  0.56541380  0.76139670  0.37262056    -0.37300
N4568       N  0.55082870  0.82403064  0.46825759    -0.37300
C4569       C  0.73219390  0.78943268  0.42147136    -0.04000
C4570       C  0.71094129  0.79286465  0.43230040    -0.01100
C4571       C  0.68034991  0.76866681  0.43420160     0.03900
C4572       C  0.67059924  0.74066146  0.42537673    -0.04000
C4573       C  0.69215929  0.73665725  0.41525499    -0.01100
C4574       C  0.72286345  0.76086350  0.41339785     0.03900
C4575       C  0.72047193  0.82161546  0.44135969     0.38500
C4576       C  0.68243720  0.70774325  0.40637645     0.38500
C4577       C  0.74434014  0.75692206  0.40237070     0.36900
C4578       C  0.65835149  0.77331601  0.44429513     0.36900
N4579       N  0.76147524  0.75379006  0.39353844    -0.37900
N4580       N  0.64072274  0.77703478  0.45224696    -0.37900
N4581       N  0.67453542  0.68462308  0.39932034    -0.37300
N4582       N  0.72808947  0.84453635  0.44858729    -0.37300
C4583       C  0.89945169  0.51063936  0.42641559    -0.04000
C4584       C  0.92351764  0.52345054  0.43878909    -0.01100
C4585       C  0.94712318  0.55409916  0.43672909     0.03900
C4586       C  0.94661877  0.57223475  0.42242155    -0.04000
C4587       C  0.92085336  0.56053196  0.41127627    -0.01100
C4588       C  0.89737674  0.52963440  0.41317522     0.03900
C4589       C  0.92552102  0.50440383  0.45269079     0.38500
C4590       C  0.91939006  0.57965130  0.39726505     0.38500
C4591       C  0.87157617  0.51697880  0.40113023     0.36900
C4592       C  0.97299860  0.56644596  0.44875527     0.36900
N4593       N  0.85047004  0.00658470  0.39147338    -0.37900
N4594       N  0.49362775  0.57612931  0.45833003    -0.37900
N4595       N  0.91808500  0.59491653  0.38612144    -0.37300
N4596       N  0.92726918  0.48929072  0.46376763    -0.37300
C4597       C  0.93449552  0.60242376  0.65093988    -0.04000
C4598       C  0.96288509  0.61599889  0.65986394    -0.01100
C4599       C  0.96373217  0.61740121  0.67860162     0.03900
C4600       C  0.93619403  0.60519431  0.68853334    -0.04000
C4601       C  0.90778635  0.59147819  0.67961320    -0.01100
C4602       C  0.90695110  0.59026638  0.66088489     0.03900
C4603       C  0.99132353  0.62958439  0.64972811     0.38500
C4604       C  0.87928739  0.57749189  0.68973471     0.38500
C4605       C  0.87762238  0.57560725  0.65191685     0.36900
C4606       C  0.99300334  0.63236724  0.68762242     0.36900
N4607       N  0.85413922  0.56390959  0.64487150    -0.37900
N4608       N  0.51634802  0.64435456  0.69482465    -0.37900
N4609       N  0.85661005  0.56625584  0.69782993    -0.37300
N4610       N  0.51396010  0.64045807  0.64159845    -0.37300
C4611       C  0.93292859  0.75508166  0.57795293    -0.04000
C4612       C  0.92748194  0.73933179  0.59445910    -0.01100
C4613       C  0.93694150  0.71761610  0.59700502     0.03900
C4614       C  0.95037091  0.70998589  0.58284505    -0.04000
C4615       C  0.95721238  0.72663210  0.56665140    -0.01100
C4616       C  0.94857164  0.74920971  0.56423585     0.03900
C4617       C  0.91067481  0.74411575  0.60870129     0.38500
C4618       C  0.97210679  0.71985565  0.55223214     0.38500
C4619       C  0.95599011  0.76649995  0.54770046     0.36900
C4620       C  0.93253516  0.70278966  0.61428764     0.36900
N4621       N  0.96188874  0.78033829  0.53451947    -0.37900
N4622       N  0.92905568  0.69097319  0.62802973    -0.37900
N4623       N  0.48415427  0.71460978  0.54075035    -0.37300
N4624       N  0.89727667  0.74780447  0.62007135    -0.37300
C4625       C  0.88302221  0.92761966  0.57669204    -0.04000
C4626       C  0.89371154  0.94615310  0.56117031    -0.01100
C4627       C  0.89903301  0.97632915  0.56133370     0.03900
C4628       C  0.89505313  0.98871859  0.57727397    -0.04000
C4629       C  0.88149093  0.96929554  0.59225166    -0.01100
C4630       C  0.87506127  0.93858821  0.59185413     0.03900
C4631       C  0.90135123  0.93517317  0.54519710     0.38500
C4632       C  0.87473292  0.98103911  0.60819678     0.38500
C4633       C  0.86241198  0.91908020  0.60745597     0.36900
C4634       C  0.91085152  0.99513210  0.54534847     0.36900
N4635       N  0.85222148  0.90344628  0.61987100    -0.37900
N4636       N  0.92009197  0.00994139  0.53255740    -0.37900
N4637       N  0.86817317  0.48970944  0.62087062    -0.37300
N4638       N  0.90820503  0.92760586  0.53227858    -0.37300
C4639       C  0.82511962  0.56595695  0.57336371    -0.04000
C4640       C  0.81279852  0.57592791  0.55973981    -0.01100
C4641       C  0.78210497  0.56931858  0.56092225     0.03900
C4642       C  0.76366792  0.55258977  0.57561507    -0.04000
C4643       C  0.77498337  0.54015875  0.58829259    -0.01100
C4644       C  0.80564075  0.54673616  0.58716594     0.03900
C4645       C  0.83208727  0.59460246  0.54513230     0.38500
C4646       C  0.75579925  0.02078312  0.60293548     0.38500
C4647       C  0.81718845  0.53384337  0.60030871     0.36900
C4648       C  0.76976834  0.58083323  0.54741648     0.36900
N4649       N  0.82634642  0.52346353  0.61075380    -0.37900
N4650       N  0.75981363  0.58994293  0.53668115    -0.37900
N4651       N  0.74005659  0.00556323  0.61439089    -0.37300
N4652       N  0.84745112  0.60945546  0.53345279    -0.37300
C4653       C  0.54260753  0.61296997  0.58156440    -0.04000
C4654       C  0.53921054  0.59079132  0.56887322    -0.01100
C4655       C  0.56332323  0.58494081  0.56560778     0.03900
C4656       C  0.59104202  0.60141686  0.57484201    -0.04000
C4657       C  0.59531141  0.62512439  0.58653710    -0.01100
C4658       C  0.57104647  0.63096217  0.58989692     0.03900
C4659       C  0.01067036  0.57375199  0.55920210     0.38500
C4660       C  0.62439801  0.64279888  0.59548412     0.38500
C4661       C  0.57475224  0.65409688  0.60262001     0.36900
C4662       C  0.55880334  0.56051961  0.55363320     0.36900
N4663       N  0.57772949  0.67254345  0.61280468    -0.37900
N4664       N  0.55480723  0.54080440  0.54418151    -0.37900
N4665       N  0.64767662  0.65691227  0.60254992    -0.37300
N4666       N  0.98791497  0.56031377  0.55153081    -0.37300
C4667       C  0.98377665  0.62588895  0.51773150    -0.04000
C4668       C  0.96671948  0.62094565  0.50204478    -0.01100
C4669       C  0.98146469  0.62832848  0.48518913     0.03900
C4670       C  0.51389260  0.64079009  0.48357749    -0.04000
C4671       C  0.53063844  0.64419954  0.49929468    -0.01100
C4672       C  0.51587263  0.63732233  0.51616751     0.03900
C4673       C  0.93390791  0.60937052  0.50318407     0.38500
C4674       C  0.56333376  0.65529524  0.49834368     0.38500
C4675       C  0.53425534  0.64229711  0.53192663     0.36900
C4676       C  0.96246529  0.62241695  0.46957706     0.36900
N4677       N  0.54948795  0.64693028  0.54430325    -0.37900
N4678       N  0.94691427  0.61769304  0.45732999    -0.37900
N4679       N  0.58936628  0.66388043  0.49769200    -0.37300
N4680       N  0.90776682  0.60013680  0.50406001    -0.37300
loop_ 
_geom_bond_atom_site_label_1 
_geom_bond_atom_site_label_2 
_geom_bond_distance 
_geom_bond_site_symmetry_2 
_ccdc_geom_bond_type 
Zn1           O5   1.908       .  S
Zn1           O6   1.970       .  S
Zn1          O10   1.998       .  S
Zn1          O17   2.013       .  S
Zn2           O5   1.947       .  S
Zn2           O7   2.003       .  S
Zn2          O13   2.041       .  S
Zn2        O2349   2.035       .  S
Zn3           O5   1.942       .  S
Zn3           O8   2.002       .  S
Zn3          O11   2.070       .  S
Zn3          O14   2.045       .  S
Zn4           O5   1.892       .  S
Zn4          O12   1.983       .  S
Zn4          O15   1.964       .  S
Zn4          O16   2.013       .  S
O6         C2358   1.271       .  A
O7           C19   1.271       .  A
O8           C20   1.273       .  A
O9        Zn2342   2.035   1_455  S
O9           C18   1.278       .  A
O10          C20   1.273       .  A
O11          C19   1.282       .  A
O12          C21   1.272       .  A
O13          C22   1.278       .  A
O14          C21   1.279       .  A
O15          C22   1.271       .  A
O16          C23   1.272       .  A
O17          C23   1.272       .  A
C18        O2346   1.271   1_455  A
C18        C1143   1.475       .  S
C19        C1157   1.506       .  S
C20        C2288   1.482   1_545  S
C21        C1129   1.485       .  S
C22        C1104   1.483       .  S
C23        C1087   1.483       .  S
Zn24         O28   1.907       .  S
Zn24         O29   1.984       .  S
Zn24         O33   2.017       .  S
Zn24         O40   2.007       .  S
Zn25         O28   1.951       .  S
Zn25         O32   2.043       .  S
Zn25         O36   1.981       .  S
Zn25       O2370   2.059   1_455  S
Zn26         O28   1.917       .  S
Zn26         O31   2.029       .  S
Zn26         O34   1.989   1_455  S
Zn26         O37   2.000       .  S
Zn27         O28   1.956       .  S
Zn27         O35   2.041       .  S
Zn27         O38   2.101       .  S
Zn27         O39   2.081       .  S
O29          C41   1.272       .  A
O30       Zn2365   2.059       .  S
O30          C42   1.279       .  A
O31          C43   1.274       .  A
O32          C41   1.278       .  A
O33          C43   1.274       .  A
O34        C2382   1.272       .  A
O35          C44   1.277       .  A
O36          C45   1.269       .  A
O37          C44   1.274       .  A
O38          C45   1.286       .  A
O39          C46   1.283       .  A
O40          C46   1.273       .  A
C41        C1048   1.485       .  S
C42        O2374   1.272       .  A
C42        C1076   1.483       .  S
C43        C1017   1.489       .  S
C44        C1034   1.502       .  S
C45        C1160   1.515       .  S
C46        C1062   1.493       .  S
Zn47         O51   1.949       .  S
Zn47         O52   2.076       .  S
Zn47         O56   2.071       .  S
Zn47         O63   1.988       .  S
Zn48         O51   1.914       .  S
Zn48         O53   1.995       .  S
Zn48         O55   1.954       .  S
Zn48         O59   1.994       .  S
Zn49         O51   1.895       .  S
Zn49         O54   1.988       .  S
Zn49         O57   2.006       .  S
Zn49       O1230   1.964       .  S
Zn50         O51   1.958       .  S
Zn50         O61   2.054       .  S
Zn50         O62   2.066       .  S
Zn50       O1228   2.073       .  S
O52          C64   1.283       .  A
O53          C65   1.269       .  A
O54          C66   1.269       .  A
O55          C64   1.268       .  A
O56          C66   1.281       .  A
O57          C65   1.273       .  A
O58       Zn1220   2.073   1_545  S
O58          C67   1.281       .  A
O59          C68   1.272       .  A
O60       Zn1219   1.965       .  S
O60          C67   1.269   1_565  A
O61          C68   1.278       .  A
O62          C69   1.281       .  A
O63          C69   1.271       .  A
C64        C1045   1.498       .  S
C65        C3315   1.504   1_455  S
C66        C1003   1.514       .  S
C67        C1031   1.477       .  S
C68         C961   1.497       .  S
C69         C989   1.481       .  S
Zn70         O74   1.912       .  S
Zn70         O75   1.977       .  S
Zn70         O79   1.989       .  S
Zn70         O86   1.975       .  S
Zn71         O74   1.971       .  S
Zn71         O76   2.066       .  S
Zn71         O78   2.039       .  S
Zn71         O82   2.088       .  S
Zn72         O74   1.923       .  S
Zn72         O77   2.037       .  S
Zn72         O80   1.996       .  S
Zn72         O83   1.997       .  S
Zn73         O74   1.949       .  S
Zn73         O81   2.027       .  S
Zn73         O84   1.977       .  S
Zn73       O1255   2.033   1_545  S
O75          C87   1.268       .  A
O76          C88   1.282       .  A
O77          C89   1.275       .  A
O78          C87   1.275       .  A
O79          C89   1.269       .  A
O80          C88   1.274       .  A
O81          C90   1.274       .  A
O82          C91   1.284       .  A
O83          C90   1.272       .  A
O84          C91   1.269       .  A
O85       Zn1243   2.029       .  S
O85          C92   1.275       .  A
O86        C1262   1.271   1_545  A
C87        C1146   1.473       .  S
C88         C950   1.502       .  S
C89         C919   1.486       .  S
C90        C1132   1.474       .  S
C91        C1006   1.500       .  S
C92        O1256   1.271       .  A
C92         C933   1.479       .  S
Zn93         O97   1.890       .  S
Zn93         O98   2.049       .  S
Zn93        O102   1.979       .  S
Zn93        O109   2.011       .  S
Zn94         O97   1.898       .  S
Zn94         O99   1.989       .  S
Zn94        O101   1.991       .  S
Zn94        O105   1.954       .  S
Zn95         O97   1.954       .  S
Zn95        O100   2.083       .  S
Zn95        O103   2.053       .  S
Zn95        O106   2.118       .  S
Zn96         O97   1.934       .  S
Zn96        O104   1.982       .  S
Zn96        O107   2.049       .  S
Zn96        O108   2.078       .  S
O98         C110   1.277       .  A
O99         C111   1.270       .  A
O100        C112   1.288       .  A
O101        C110   1.269       .  A
O102        C112   1.275       .  A
O103        C111   1.277       .  A
O104        C113   1.268       .  A
O105        C114   1.271       .  A
O106        C113   1.288       .  A
O107        C114   1.282       .  A
O108        C115   1.281       .  A
O109        C115   1.274       .  A
C110        C891   1.486       .  S
C111       C2243   1.483       .  S
C112        C992   1.496       .  S
C113        C908   1.518       .  S
C114        C978   1.472       .  S
C115       C1059   1.498       .  S
Zn116       O120   1.912       .  S
Zn116       O121   2.010       .  S
Zn116       O125   2.040       .  S
Zn116       O132   1.964       .  S
Zn117       O120   1.939       .  S
Zn117       O122   2.054       .  S
Zn117       O124   2.058       .  S
Zn117       O128   1.980       .  S
Zn118       O120   1.904       .  S
Zn118       O123   1.986       .  S
Zn118       O126   1.950       .  S
Zn118       O129   1.980       .  S
Zn119       O120   1.961       .  S
Zn119       O127   2.064       .  S
Zn119       O130   2.074       .  S
Zn119       O131   2.055       .  S
O121        C133   1.271       .  A
O122        C134   1.281       .  A
O123        C135   1.269       .  A
O124        C133   1.277       .  A
O125        C135   1.277       .  A
O126        C134   1.268       .  A
O127        C136   1.278       .  A
O128        C137   1.271       .  A
O129        C136   1.268       .  A
O130        C137   1.283       .  A
O131        C138   1.281       .  A
O132        C138   1.271       .  A
C133        C905   1.495       .  S
C134       C1101   1.482       .  S
C135       C3276   1.484       .  S
C136        C877   1.515       .  S
C137        C947   1.494       .  S
C138       C1115   1.478       .  S
Zn139       O143   1.913       .  S
Zn139       O144   1.987       .  S
Zn139       O148   1.975       .  S
Zn139       O155   1.982       .  S
Zn140      O2483   1.906       .  S
Zn140       O145   1.955       .  S
Zn140       O147   2.016       .  S
Zn140       O151   1.984       .  S
Zn141       O143   1.960       .  S
Zn141       O146   2.034       .  S
Zn141       O152   1.995       .  S
Zn141      O2489   2.050   1_455  S
Zn142       O143   1.958       .  S
Zn142       O150   2.066       .  S
Zn142       O154   2.019       .  S
Zn142      O2493   2.051   1_455  S
O143      Zn2480   1.906   1_455  S
O144       C2496   1.269       .  A
O145        C157   1.268       .  A
O146        C158   1.276       .  A
O147        C156   1.271       .  A
O148        C158   1.271       .  A
O149      Zn2481   2.050       .  S
O149        C157   1.277       .  A
O150        C159   1.281       .  A
O151        C160   1.271       .  A
O152        C159   1.272       .  A
O153      Zn2482   2.051       .  S
O153        C160   1.278       .  A
O154        C161   1.273       .  A
O155        C161   1.269       .  A
C156       O2484   1.269       .  A
C156       C3136   1.478       .  S
C157        C849   1.499       .  S
C158        C810   1.475       .  S
C159        C866   1.497       .  S
C160        C821   1.480       .  S
C161        C835   1.467       .  S
Zn162       O166   1.907       .  S
Zn162       O167   1.974       .  S
Zn162       O171   1.998       .  S
Zn162       O178   2.022       .  S
Zn163       O166   1.965       .  S
Zn163       O170   2.062       .  S
Zn163       O174   2.049       .  S
Zn163      O2508   2.070   1_455  S
Zn164       O166   1.941       .  S
Zn164       O169   2.053       .  S
Zn164       O172   1.968       .  S
Zn164       O175   2.072       .  S
Zn165       O166   1.914       .  S
Zn165       O173   1.980       .  S
Zn165       O176   2.004       .  S
Zn165       O177   1.987       .  S
O167        C179   1.271       .  A
O168      Zn2503   2.070       .  S
O168        C180   1.281       .  A
O169        C181   1.278       .  A
O170        C179   1.280       .  A
O171        C181   1.271       .  A
O172       C2520   1.270   1_455  A
O173        C182   1.271       .  A
O174        C183   1.277       .  A
O175        C182   1.282       .  A
O176        C183   1.272       .  A
O177        C184   1.270       .  A
O178        C184   1.275       .  A
C179        C751   1.476       .  S
C180       O2512   1.270       .  A
C180        C768   1.488       .  S
C181        C863   1.504       .  S
C182        C740   1.507       .  S
C183       C1020   1.506       .  S
C184        C782   1.473       .  S
Zn185       O189   1.904       .  S
Zn185       O190   1.981       .  S
Zn185       O194   1.994       .  S
Zn185       O201   1.957       .  S
Zn186       O189   1.970       .  S
Zn186       O191   2.056       .  S
Zn186       O193   2.038       .  S
Zn186       O197   2.083       .  S
Zn187       O189   1.917       .  S
Zn187       O192   2.043       .  S
Zn187       O195   1.976       .  S
Zn187       O198   2.000       .  S
Zn188       O189   1.949       .  S
Zn188       O196   2.050       .  S
Zn188       O199   1.988       .  S
Zn188       O200   2.042       .  S
O190        C202   1.269       .  A
O191        C203   1.281       .  A
O192        C204   1.275       .  A
O193        C202   1.276       .  A
O194        C204   1.269       .  A
O195        C203   1.273       .  A
O196        C205   1.278       .  A
O197        C206   1.282       .  A
O198        C205   1.272       .  A
O199        C206   1.270       .  A
O200        C207   1.279       .  A
O201        C207   1.269       .  A
C202        C709   1.476       .  S
C203       C1935   1.480       .  S
C204        C894   1.484       .  S
C205        C695   1.481       .  S
C206        C726   1.504       .  S
C207        C779   1.481       .  S
Zn208       O212   1.896       .  S
Zn208       O213   2.019       .  S
Zn208       O217   2.021       .  S
Zn208       O224   1.973       .  S
Zn209       O212   1.911       .  S
Zn209       O214   2.057       .  S
Zn209       O216   2.047       .  S
Zn209       O220   1.987       .  S
Zn210       O212   1.906       .  S
Zn210       O215   1.990       .  S
Zn210       O218   2.009       .  S
Zn210       O221   2.010       .  S
Zn211       O212   1.942       .  S
Zn211       O219   2.037       .  S
Zn211       O222   2.064       .  S
Zn211       O223   2.067       .  S
O213        C225   1.273       .  A
O214        C226   1.282       .  A
O215        C227   1.271       .  A
O216        C225   1.278       .  A
O217        C227   1.276       .  A
O218        C226   1.276       .  A
O219        C228   1.275       .  A
O220        C229   1.274       .  A
O221        C228   1.275       .  A
O222        C229   1.282       .  A
O223        C230   1.282       .  A
O224        C230   1.271       .  A
C225        C723   1.519       .  S
C226        C681   1.508       .  S
C227        C807   1.480       .  S
C228        C653   1.509       .  S
C229        C824   1.490       .  S
C230        C667   1.477       .  S
Zn231      O1405   1.872       .  S
Zn231       O236   1.956       .  S
Zn231       O240   2.011       .  S
Zn231       O247   2.012       .  S
Zn232       O235   1.953       .  S
Zn232       O237   2.073   1_565  S
Zn232       O243   2.056       .  S
Zn232      O1409   2.076       .  S
Zn233       O235   1.908   1_545  S
Zn233       O238   2.050   1_545  S
Zn233       O241   1.991       .  S
Zn233       O244   2.043       .  S
Zn234       O235   1.899       .  S
Zn234       O242   1.971   1_565  S
Zn234       O245   2.003       .  S
Zn234      O1416   2.024       .  S
O235      Zn1401   1.872       .  S
O236        C248   1.266       .  A
O237        C249   1.283       .  A
O238       C1420   1.279       .  A
O239      Zn1402   2.077       .  S
O239        C248   1.281       .  A
O240        C250   1.272       .  A
O241        C249   1.273       .  A
O242        C251   1.273       .  A
O243        C252   1.280       .  A
O244        C251   1.280       .  A
O245        C252   1.275       .  A
O246      Zn1404   2.024       .  S
O246        C253   1.273       .  A
O247        C253   1.273       .  A
C248        C838   1.486       .  S
C249        C684   1.507       .  S
C250       O1408   1.279       .  A
C250        C642   1.494       .  S
C251        C852   1.474       .  S
C252        C625   1.493   1_565  S
C253        C670   1.486       .  S
Zn254       O258   1.950       .  S
Zn254       O259   2.052       .  S
Zn254       O263   2.027       .  S
Zn254       O270   2.081       .  S
Zn255       O258   1.896       .  S
Zn255       O260   2.019       .  S
Zn255       O262   1.995       .  S
Zn255       O266   1.993       .  S
Zn256       O258   1.918       .  S
Zn256       O261   2.018       .  S
Zn256       O264   2.022       .  S
Zn256       O267   1.985       .  S
Zn257       O258   1.945       .  S
Zn257       O265   2.046       .  S
Zn257       O269   1.981       .  S
Zn257      O1438   2.056       .  S
O259        C271   1.281       .  A
O260        C272   1.274       .  A
O261        C273   1.275       .  A
O262        C271   1.274       .  A
O263        C273   1.274       .  A
O264        C272   1.274       .  A
O265        C274   1.279       .  A
O266       C1445   1.273       .  A
O267        C274   1.273       .  A
O268      Zn1427   2.056   1_545  S
O268        C275   1.278       .  A
O269        C276   1.269       .  A
O270        C276   1.283       .  A
C271       C3038   1.487   1_455  S
C272        C964   1.491       .  S
C273        C754   1.507       .  S
C274        C712   1.480       .  S
C275       O1436   1.273   1_545  A
C275        C737   1.488       .  S
C276        C639   1.505       .  S
Zn277       O281   1.917       .  S
Zn277       O282   1.986       .  S
Zn277       O286   1.997       .  S
Zn277       O293   2.031       .  S
Zn278       O281   1.975       .  S
Zn278       O283   2.103       .  S
Zn278       O285   2.065       .  S
Zn278       O289   2.034       .  S
Zn279       O281   1.940       .  S
Zn279       O284   2.034       .  S
Zn279       O287   1.959       .  S
Zn279       O290   2.035       .  S
Zn280       O281   1.918       .  S
Zn280       O288   1.977       .  S
Zn280       O291   1.994       .  S
Zn280       O292   2.010       .  S
O282        C294   1.271       .  A
O283        C295   1.285       .  A
O284        C296   1.275       .  A
O285        C294   1.282       .  A
O286        C296   1.271       .  A
O287        C295   1.267       .  A
O288        C297   1.270       .  A
O289        C298   1.275       .  A
O290        C297   1.277       .  A
O291        C298   1.272       .  A
O292        C299   1.271       .  A
O293        C299   1.274       .  A
C294       C2895   1.516       .  S
C295        C611   1.499       .  S
C296        C583   1.477       .  S
C297        C569   1.475       .  S
C298        C600   1.503       .  S
C299        C880   1.481       .  S
Zn300       O304   1.946       .  S
Zn300       O305   2.064       .  S
Zn300       O309   2.065       .  S
Zn300       O316   2.008       .  S
Zn301       O304   1.928       .  S
Zn301       O306   1.989       .  S
Zn301       O308   1.978       .  S
Zn301       O312   2.001       .  S
Zn302       O304   1.923       .  S
Zn302       O307   1.999       .  S
Zn302       O310   2.019       .  S
Zn302       O313   1.974       .  S
Zn303       O304   1.953       .  S
Zn303       O311   2.043       .  S
Zn303       O314   2.045       .  S
Zn303       O315   2.051       .  S
O305        C317   1.282       .  A
O306        C318   1.268       .  A
O307        C319   1.270       .  A
O308        C317   1.270       .  A
O309        C319   1.280       .  A
O310        C318   1.274       .  A
O311        C320   1.277       .  A
O312        C321   1.271       .  A
O313        C320   1.271       .  A
O314        C321   1.277       .  A
O315        C322   1.280       .  A
O316        C322   1.273       .  A
C317        C513   1.505       .  S
C318        C530   1.472       .  S
C319        C614   1.516       .  S
C320        C499   1.471       .  S
C321        C656   1.506       .  S
C322        C544   1.484       .  S
Zn323       O327   1.909       .  S
Zn323       O328   1.987       .  S
Zn323       O332   1.933       .  S
Zn323       O339   1.984       .  S
Zn324       O327   1.913       .  S
Zn324       O329   1.988       .  S
Zn324       O331   2.038       .  S
Zn324       O335   2.006       .  S
Zn325       O327   1.961       .  S
Zn325       O330   2.056       .  S
Zn325       O336   2.013       .  S
Zn325      O1503   2.060   1_545  S
Zn326       O327   1.956       .  S
Zn326       O334   2.074       .  S
Zn326       O337   2.040       .  S
Zn326       O338   2.031       .  S
O328        C340   1.268       .  A
O329       C1511   1.274   1_545  A
O330        C342   1.279       .  A
O331        C340   1.274       .  A
O332        C342   1.267       .  A
O333      Zn1495   2.060       .  S
O333        C341   1.281       .  A
O334        C343   1.282       .  A
O335        C344   1.275       .  A
O336        C343   1.273       .  A
O337        C344   1.279       .  A
O338        C345   1.275       .  A
O339        C345   1.271       .  A
C340        C922   1.489       .  S
C341       O1499   1.274       .  A
C341        C558   1.492       .  S
C342        C474   1.483       .  S
C343        C488   1.498       .  S
C344        C457   1.482       .  S
C345        C572   1.496       .  S
Zn346       O350   1.915       .  S
Zn346       O351   2.020       .  S
Zn346      O1525   1.993   1_545  S
Zn346      O1532   2.012       .  S
Zn347       O350   1.860       .  S
Zn347       O352   1.993       .  S
Zn347       O354   1.974       .  S
Zn347       O358   1.949       .  S
Zn348      O1520   1.915       .  S
Zn348       O353   2.059       .  S
Zn348       O356   2.071       .  S
Zn348       O359   1.943       .  S
Zn349       O350   1.941       .  S
Zn349       O360   2.066       .  S
Zn349      O1527   2.057   1_545  S
Zn349      O1531   2.042       .  S
O350      Zn1518   1.915   1_545  S
O351        C363   1.273       .  A
O352        C364   1.268       .  A
O353        C365   1.283       .  A
O354        C363   1.270       .  A
O355      Zn1516   1.995       .  S
O355        C365   1.275       .  A
O356       C1534   1.279       .  A
O357      Zn1519   2.059       .  S
O357        C366   1.282       .  A
O358        C367   1.269       .  A
O359        C366   1.267       .  A
O360        C367   1.282       .  A
O361      Zn1519   2.042       .  S
O361        C368   1.276       .  A
O362      Zn1516   2.012       .  S
O362        C368   1.275       .  A
C363        C443   1.489       .  S
C364       O1526   1.279       .  A
C364        C485   1.499       .  S
C365        C541   1.491       .  S
C366        C429   1.491       .  S
C367        C527   1.469       .  S
C368       C1798   1.493       .  S
Zn369       O373   1.896       .  S
Zn369       O374   2.023       .  S
Zn369       O378   2.038       .  S
Zn369       O385   1.982       .  S
Zn370       O373   1.897       .  S
Zn370       O377   1.978       .  S
Zn370       O381   1.992       .  S
Zn370      O2715   2.004   1_455  S
Zn371      O2713   1.871       .  S
Zn371       O376   2.015       .  S
Zn371       O379   2.011       .  S
Zn371       O382   1.964       .  S
Zn372       O373   1.941       .  S
Zn372       O383   2.025       .  S
Zn372       O384   2.054       .  S
Zn372      O2720   2.062   1_455  S
O373      Zn2711   1.871   1_455  S
O374        C386   1.280       .  A
O375      Zn2710   2.004       .  S
O375        C387   1.270       .  A
O376        C388   1.272       .  A
O377        C386   1.274       .  A
O378       C2728   1.278   1_455  A
O379        C387   1.274       .  A
O380      Zn2712   2.062       .  S
O380        C389   1.279       .  A
O381        C390   1.274       .  A
O382        C389   1.267       .  A
O383        C390   1.277       .  A
O384        C391   1.280       .  A
O385        C391   1.270       .  A
C386        C432   1.468       .  S
C387        C502   1.483       .  S
C388       O2718   1.278       .  A
C388        C415   1.490       .  S
C389        C446   1.484       .  S
C390        C793   1.491       .  S
C391        C516   1.490       .  S
Zn392       O396   1.915       .  S
Zn392       O401   2.018       .  S
Zn392       O408   1.985       .  S
Zn392      O2737   1.984       .  S
Zn393       O396   1.952       .  S
Zn393       O398   2.039       .  S
Zn393       O404   1.986       .  S
Zn393      O2740   2.046       .  S
Zn394       O396   1.919       .  S
Zn394       O399   1.999       .  S
Zn394       O402   1.984       .  S
Zn394       O405   1.980       .  S
Zn395       O396   1.972       .  S
Zn395       O403   2.019       .  S
Zn395       O406   2.069       .  S
Zn395       O407   2.053       .  S
O397      Zn2732   1.984       .  S
O397        C409   1.271   1_655  A
O398        C410   1.277       .  A
O399        C411   1.271       .  A
O400      Zn2733   2.046   1_455  S
O400        C409   1.277       .  A
O401        C411   1.272       .  A
O402        C410   1.271       .  A
O403        C412   1.272       .  A
O404        C413   1.269       .  A
O405        C412   1.269       .  A
O406        C413   1.280       .  A
O407        C414   1.280       .  A
O408        C414   1.272       .  A
C409        C460   1.477       .  S
C410        C597   1.482       .  S
C411       C1090   1.482       .  S
C412        C471   1.468       .  S
C413        C418   1.484       .  S
C414       C1756   1.488   1_545  S
C415        C420   1.413       .  A
C415       C2756   1.416       .  A
C416       C2755   1.416       .  A
C416       C2757   1.412       .  A
C416        C421   1.451   1_655  S
C417        C418   1.410       .  A
C417       C2756   1.412       .  A
C417       C2764   1.450       .  S
C418        C419   1.413       .  A
C419        C420   1.414       .  A
C419        C422   1.449       .  S
C420        C423   1.451       .  S
C421        N428   1.157       .  T
C422        N427   1.157       .  T
C423        N425   1.157       .  T
C424       C2757   1.450       .  S
C424        N426   1.157   1_655  T
C429        C430   1.427       .  A
C429        C434   1.416       .  A
C430        C431   1.404       .  A
C430        C435   1.455       .  S
C431        C432   1.404       .  A
C431        C438   1.455       .  S
C432        C433   1.410       .  A
C433        C434   1.411       .  A
C433        C436   1.452       .  S
C434        C437   1.450       .  S
C435        N442   1.157       .  T
C436        N441   1.157       .  T
C437        N439   1.157       .  T
C438        N440   1.158       .  T
C443        C444   1.417       .  A
C443        C448   1.420       .  A
C444        C445   1.400       .  A
C444        C449   1.457       .  S
C445        C446   1.417       .  A
C445        C452   1.456       .  S
C446        C447   1.411       .  A
C447        C448   1.415       .  A
C447        C450   1.450       .  S
C448        C451   1.451       .  S
C449        N456   1.158       .  T
C450        N455   1.157       .  T
C451        N453   1.158       .  T
C452        N454   1.157       .  T
C457        C458   1.410       .  A
C457        C462   1.416       .  A
C458        C459   1.409       .  A
C458        C463   1.451       .  S
C459        C460   1.413       .  A
C459        C466   1.452       .  S
C460        C461   1.408       .  A
C461        C462   1.412       .  A
C461        C464   1.450       .  S
C462        C465   1.451       .  S
C463        N470   1.157       .  T
C464        N469   1.157       .  T
C465        N467   1.157       .  T
C466        N468   1.157   1_455  T
C471        C472   1.404       .  A
C471        C476   1.412       .  A
C472        C473   1.399       .  A
C472        C477   1.454       .  S
C473        C474   1.422       .  A
C473        C480   1.455       .  S
C474        C475   1.413       .  A
C475        C476   1.415       .  A
C475       C1648   1.449       .  S
C476        C479   1.449       .  S
C477        N484   1.157       .  T
C478       C1645   1.449       .  S
C478        N483   1.157       .  T
C479       N1651   1.157       .  T
C480        N482   1.157       .  T
N481       C1649   1.157       .  T
C485        C486   1.416       .  A
C485        C490   1.416       .  A
C486        C487   1.416       .  A
C486        C491   1.451       .  S
C487        C488   1.415       .  A
C487        C494   1.449       .  S
C488        C489   1.415       .  A
C489        C490   1.417       .  A
C489        C492   1.449       .  S
C490       C1663   1.451   1_545  S
C491        N498   1.157       .  T
C492       N1667   1.157   1_545  T
C493       C1660   1.451       .  S
C493        N495   1.158       .  T
C494        N496   1.157       .  T
N497       C1662   1.157       .  T
C499        C500   1.408       .  A
C499        C504   1.411       .  A
C500        C501   1.411       .  A
C500        C505   1.452       .  S
C501        C502   1.417       .  A
C501        C508   1.451       .  S
C502        C503   1.411       .  A
C503        C504   1.407       .  A
C503        C506   1.451       .  S
C504        C507   1.451       .  S
C505        N512   1.157       .  T
C506        N511   1.157       .  T
C507        N509   1.157       .  T
C508        N510   1.158       .  T
C513        C514   1.418       .  A
C513        C518   1.427       .  A
C514        C515   1.414       .  A
C514        C519   1.451       .  S
C515        C516   1.415       .  A
C515        C522   1.452       .  S
C516        C517   1.411       .  A
C517        C518   1.412       .  A
C517        C520   1.454       .  S
C518        C521   1.453       .  S
C519        N526   1.157       .  T
C520        N525   1.158       .  T
C521        N523   1.158       .  T
C522        N524   1.157       .  T
C527        C528   1.412       .  A
C527        C532   1.410       .  A
C528        C529   1.410       .  A
C528        C533   1.451       .  S
C529        C530   1.410       .  A
C529        C536   1.451       .  S
C530        C531   1.411       .  A
C531        C532   1.406       .  A
C531        C534   1.452       .  S
C532        C535   1.452       .  S
C533        N540   1.157       .  T
C534        N539   1.157       .  T
C535        N537   1.157       .  T
C536        N538   1.157       .  T
C541        C542   1.413       .  A
C541        C546   1.419       .  A
C542        C543   1.415       .  A
C542        C547   1.450       .  S
C543        C544   1.413       .  A
C543        C550   1.449       .  S
C544        C545   1.410       .  A
C545        C546   1.410       .  A
C545        C548   1.453       .  S
C546        C549   1.453       .  S
C547        N554   1.157       .  T
C548        N553   1.157       .  T
C549        N551   1.157       .  T
C550        N552   1.157       .  T
C555       C2634   1.516   1_455  S
C555        C556   1.425       .  A
C555        C560   1.430       .  A
C556        C557   1.418       .  A
C556        C561   1.450       .  S
C557        C558   1.410       .  A
C557        C564   1.449       .  S
C558        C559   1.409       .  A
C559        C560   1.410       .  A
C559        C562   1.455       .  S
C560        C563   1.453       .  S
C561        N568   1.157       .  T
C562       N1737   1.158       .  T
C563       N2905   1.158   1_455  T
C564        N566   1.157       .  T
N565       C2903   1.158       .  T
N567       C1732   1.158       .  T
C569        C570   1.407       .  A
C569        C574   1.410       .  A
C570        C571   1.408       .  A
C570        C575   1.452       .  S
C571        C572   1.422       .  A
C571        C578   1.453       .  S
C572        C573   1.420       .  A
C573        C574   1.412       .  A
C573        C576   1.451       .  S
C574        C577   1.452       .  S
C575        N582   1.157       .  T
C576        N581   1.158       .  T
C577        N579   1.157       .  T
C578        N580   1.158       .  T
C583        C584   1.406       .  A
C583        C588   1.414       .  A
C584        C585   1.409       .  A
C584        C589   1.451       .  S
C585        C586   1.419       .  A
C585        C592   1.452       .  S
C586       C1584   1.487       .  S
C586        C587   1.412       .  A
C587        C588   1.413       .  A
C587       C1760   1.450       .  S
C588        C591   1.451       .  S
C589        N596   1.157       .  T
C590       C1757   1.450       .  S
C590        N595   1.157   1_565  T
C591        N593   1.157       .  T
C592        N594   1.157       .  T
C597        C598   1.408       .  A
C597        C602   1.411       .  A
C598        C599   1.409       .  A
C598        C603   1.453       .  S
C599        C600   1.423       .  A
C599        C606   1.453       .  S
C600        C601   1.422       .  A
C601        C602   1.414       .  A
C601        C604   1.451       .  S
C602       C2945   1.452       .  S
C603        N610   1.157       .  T
C604       N2949   1.158       .  T
C605       C2942   1.452       .  S
C605        N607   1.157       .  T
C606        N608   1.158       .  T
N609       C2944   1.158       .  T
C611        C612   1.418       .  A
C611        C616   1.411       .  A
C612        C613   1.414       .  A
C612        C617   1.453       .  S
C613        C614   1.420       .  A
C613        C620   1.452       .  S
C614        C615   1.428       .  A
C615        C616   1.420       .  A
C615        C618   1.452       .  S
C616        C619   1.451       .  S
C617        N624   1.157       .  T
C618        N623   1.157       .  T
C619        N621   1.157       .  T
C620        N622   1.157       .  T
C625        C630   1.416       .  A
C625       C1796   1.416   1_545  A
C626        C627   1.417   1_554  A
C626       C1795   1.416       .  A
C626        C631   1.451       .  S
C627       C1798   1.416       .  A
C627        C634   1.450       .  S
C628       C1538   1.492       .  S
C628        C629   1.414       .  A
C628       C1797   1.416   1_545  A
C629        C630   1.409   1_556  A
C629        C632   1.453       .  S
C630        C633   1.451       .  S
C631        N638   1.157       .  T
C632        N637   1.157       .  T
C633        N635   1.157       .  T
C634        N636   1.157       .  T
C639        C640   1.414       .  A
C639        C644   1.427       .  A
C640        C641   1.417       .  A
C640        C645   1.451       .  S
C641        C642   1.419       .  A
C641        C648   1.450       .  S
C642        C643   1.407       .  A
C643        C644   1.412       .  A
C643        C646   1.453       .  S
C644        C647   1.451       .  S
C645        N652   1.157       .  T
C646       N1821   1.157       .  T
C647        N649   1.157       .  T
C648        N650   1.157       .  T
N651       C1816   1.157       .  T
C653        C654   1.419       .  A
C653        C658   1.423       .  A
C654        C655   1.413   1_554  A
C654        C659   1.455       .  S
C655        C656   1.422       .  A
C655        C662   1.452       .  S
C656        C657   1.416       .  A
C657        C658   1.417   1_556  A
C657        C660   1.453       .  S
C658        C661   1.451       .  S
C659        N666   1.157       .  T
C660        N665   1.156       .  T
C661        N663   1.159       .  T
C662        N664   1.159       .  T
C667        C668   1.412       .  A
C667        C672   1.411       .  A
C668        C669   1.411       .  A
C668        C673   1.452       .  S
C669        C670   1.415       .  A
C669        C676   1.452       .  S
C670        C671   1.413       .  A
C671        C672   1.412       .  A
C671        C674   1.451       .  S
C672        C675   1.451       .  S
C673        N680   1.157       .  T
C674        N679   1.157       .  T
C675        N677   1.157       .  T
C676        N678   1.157       .  T
C681        C682   1.417       .  A
C681        C686   1.422       .  A
C682        C683   1.415       .  A
C682        C687   1.452       .  S
C683        C684   1.422       .  A
C683        C690   1.453       .  S
C684        C685   1.416       .  A
C685        C686   1.416       .  A
C685        C688   1.451       .  S
C686        C689   1.453       .  S
C687        N694   1.158       .  T
C688        N693   1.157       .  T
C689        N691   1.158       .  T
C690        N692   1.158       .  T
C695        C696   1.407       .  A
C695        C700   1.414       .  A
C696        C697   1.412       .  A
C696        C701   1.450       .  S
C697        C698   1.418       .  A
C697       C3044   1.452       .  S
C698       C2611   1.487       .  S
C698        C699   1.411       .  A
C699        C700   1.413       .  A
C699        C702   1.450       .  S
C700        C703   1.451       .  S
C701        N708   1.157       .  T
C702        N707   1.157       .  T
C703        N705   1.157       .  T
C704       C3037   1.452       .  S
C704        N706   1.157   1_655  T
C709        C710   1.414       .  A
C709        C714   1.409       .  A
C710        C711   1.413       .  A
C710        C715   1.451       .  S
C711        C712   1.409       .  A
C711       C1888   1.449       .  S
C712        C713   1.416       .  A
C713        C714   1.406       .  A
C713        C716   1.454       .  S
C714        C717   1.452       .  S
C715       N1892   1.157       .  T
C716        N721   1.157       .  T
C717        N719   1.157       .  T
C718       C1881   1.449       .  S
C718        N720   1.157   1_565  T
N722       C1885   1.157       .  T
C723        C724   1.427       .  A
C723        C728   1.425       .  A
C724        C725   1.419       .  A
C724        C729   1.452       .  S
C725        C726   1.412       .  A
C725        C732   1.450       .  S
C726        C727   1.417       .  A
C727        C728   1.416       .  A
C727        C730   1.454       .  S
C728        C731   1.453       .  S
C729        N736   1.158       .  T
C730        N735   1.158       .  T
C731        N733   1.158       .  T
C732        N734   1.157       .  T
C737        C738   1.408       .  A
C737        C742   1.413       .  A
C738        C739   1.408       .  A
C738        C743   1.455       .  S
C739        C740   1.427       .  A
C739        C746   1.454       .  S
C740        C741   1.420       .  A
C741        C742   1.420       .  A
C741        C744   1.450       .  S
C742        C745   1.450       .  S
C743        N750   1.157       .  T
C744        N749   1.157       .  T
C745        N747   1.157       .  T
C746        N748   1.158       .  T
C751        C752   1.405       .  A
C751        C756   1.408       .  A
C752        C753   1.413       .  A
C752        C757   1.451       .  S
C753        C754   1.424       .  A
C753        C760   1.451       .  S
C754        C755   1.423       .  A
C755        C756   1.412       .  A
C755        C758   1.451       .  S
C756       C3099   1.453       .  S
C757        N764   1.157       .  T
C758       N3103   1.158       .  T
C759       C3096   1.453       .  S
C759        N761   1.157       .  T
C760        N762   1.158       .  T
N763       C3098   1.158       .  T
C765       C1373   1.480   1_545  S
C765        C766   1.410       .  A
C765        C770   1.413       .  A
C766        C767   1.403       .  A
C766       C1941   1.455   1_545  S
C767        C768   1.418       .  A
C767       C3114   1.454       .  S
C768        C769   1.414       .  A
C769        C770   1.418       .  A
C769        C772   1.449       .  S
C770        C773   1.450       .  S
C771       C1936   1.455       .  S
C771        N778   1.157       .  T
C772        N777   1.157       .  T
C773        N775   1.157       .  T
C774       C3107   1.454   1_455  S
C774        N776   1.157       .  T
C779        C780   1.416       .  A
C779        C784   1.416       .  A
C780        C781   1.412       .  A
C780        C785   1.451       .  S
C781        C782   1.410       .  A
C781        C788   1.451       .  S
C782        C783   1.409       .  A
C783        C784   1.405       .  A
C783        C786   1.453       .  S
C784        C787   1.453       .  S
C785        N792   1.157       .  T
C786        N791   1.157       .  T
C787        N789   1.157       .  T
C788        N790   1.157       .  T
C793        C794   1.420   1_455  A
C793       C3138   1.418       .  A
C794        C795   1.412   1_556  A
C794        C799   1.451       .  S
C795        C796   1.410   1_655  A
C795        C802   1.452       .  S
C796       C2496   1.478       .  S
C796       C3137   1.411       .  A
C797        C798   1.406   1_554  A
C797       C3136   1.411       .  A
C797        C800   1.454       .  S
C798       C3133   1.418       .  A
C798        C801   1.453       .  S
C799        N806   1.157       .  T
C800        N805   1.157       .  T
C801        N803   1.157       .  T
C802        N804   1.157       .  T
C807        C808   1.416       .  A
C807        C812   1.411       .  A
C808        C809   1.407       .  A
C808        C813   1.453       .  S
C809        C810   1.410       .  A
C809        C816   1.452       .  S
C810        C811   1.413       .  A
C811        C812   1.410       .  A
C811        C814   1.450       .  S
C812        C815   1.451       .  S
C813        N820   1.158       .  T
C814        N819   1.157       .  T
C815        N817   1.157       .  T
C816        N818   1.157       .  T
C821        C822   1.409       .  A
C821        C826   1.412       .  A
C822        C823   1.405       .  A
C822        C827   1.453       .  S
C823        C824   1.418       .  A
C823        C830   1.454       .  S
C824        C825   1.415       .  A
C825        C826   1.418       .  A
C825        C828   1.449       .  S
C826        C829   1.450       .  S
C827        N834   1.157       .  T
C828        N833   1.157       .  T
C829        N831   1.157       .  T
C830        N832   1.157       .  T
C835        C836   1.403       .  A
C835        C840   1.411       .  A
C836        C837   1.399       .  A
C836        C841   1.455       .  S
C837        C838   1.422       .  A
C837        C844   1.454       .  S
C838        C839   1.414       .  A
C839        C840   1.415       .  A
C839        C842   1.449       .  S
C840        C843   1.450       .  S
C841        N848   1.157       .  T
C842        N847   1.157       .  T
C843        N845   1.157       .  T
C844        N846   1.157       .  T
C849        C850   1.423       .  A
C849        C854   1.422       .  A
C850        C851   1.400       .  A
C850        C855   1.455       .  S
C851        C852   1.406       .  A
C851        C858   1.455       .  S
C852        C853   1.409       .  A
C853        C854   1.416       .  A
C853        C856   1.450       .  S
C854        C857   1.449       .  S
C855        N862   1.158       .  T
C856        N861   1.157       .  T
C857        N859   1.157       .  T
C858        N860   1.157       .  T
C863        C864   1.420       .  A
C863        C868   1.421       .  A
C864        C865   1.415       .  A
C864       C3209   1.452       .  S
C865        C866   1.414       .  A
C865       C3212   1.452   1_455  S
C866        C867   1.413       .  A
C867        C868   1.416       .  A
C867        C870   1.450       .  S
C868        C871   1.452       .  S
C869       C3204   1.452       .  S
C869        N876   1.158       .  T
C870        N875   1.157       .  T
C871        N873   1.157       .  T
C872       C3205   1.452       .  S
C872        N874   1.157       .  T
C877        C878   1.432       .  A
C877        C882   1.426       .  A
C878        C879   1.410       .  A
C878        C883   1.453       .  S
C879        C880   1.404       .  A
C879        C886   1.455       .  S
C880        C881   1.407       .  A
C881        C882   1.417       .  A
C881        C884   1.451       .  S
C882        C885   1.450       .  S
C883        N890   1.158       .  T
C884        N889   1.157       .  T
C885        N887   1.158       .  T
C886        N888   1.157       .  T
C891        C892   1.412       .  A
C891        C896   1.416       .  A
C892        C893   1.412       .  A
C892        C897   1.451       .  S
C893        C894   1.413       .  A
C893        C900   1.451       .  S
C894        C895   1.412       .  A
C895        C896   1.412       .  A
C895        C898   1.451       .  S
C896        C899   1.452       .  S
C897        N904   1.157       .  T
C898        N903   1.157       .  T
C899        N901   1.157       .  T
C900        N902   1.157       .  T
C905        C906   1.403       .  A
C905        C910   1.416       .  A
C906        C907   1.418       .  A
C906        C911   1.452       .  S
C907        C908   1.435       .  A
C907        C914   1.451       .  S
C908        C909   1.416       .  A
C909        C910   1.418       .  A
C909        C912   1.449       .  S
C910        C913   1.451       .  S
C911        N918   1.157       .  T
C912        N917   1.157       .  T
C913        N915   1.157       .  T
C914        N916   1.157       .  T
C919        C920   1.411       .  A
C919        C924   1.416       .  A
C920        C921   1.412       .  A
C920        C925   1.451       .  S
C921        C922   1.418       .  A
C921        C928   1.452       .  S
C922        C923   1.414       .  A
C923        C924   1.411       .  A
C923        C926   1.452       .  S
C924        C927   1.452       .  S
C925        N932   1.157       .  T
C926        N931   1.157       .  T
C927        N929   1.157       .  T
C928        N930   1.158       .  T
C933        C934   1.413       .  A
C933        C938   1.410       .  A
C934        C935   1.412       .  A
C934        C939   1.451       .  S
C935        C936   1.413       .  A
C935        C942   1.450       .  S
C936       C2475   1.484   1_455  S
C936        C937   1.416       .  A
C937        C938   1.407       .  A
C937        C940   1.452       .  S
C938        C941   1.453       .  S
C939        N946   1.158       .  T
C940       N3285   1.157   1_455  T
C941        N943   1.157       .  T
C942        N944   1.157       .  T
N945       C3280   1.157       .  T
C947        C948   1.411       .  A
C947        C952   1.418       .  A
C948        C949   1.414       .  A
C948        C953   1.451       .  S
C949        C950   1.423       .  A
C949        C956   1.452       .  S
C950        C951   1.415       .  A
C951        C952   1.414       .  A
C951        C954   1.451       .  S
C952        C955   1.453       .  S
C953        N960   1.157       .  T
C954        N959   1.157       .  T
C955        N957   1.158       .  T
C956        N958   1.158       .  T
C961        C962   1.419       .  A
C961        C966   1.417       .  A
C962        C963   1.411       .  A
C962        C967   1.453       .  S
C963        C964   1.413       .  A
C963        C970   1.453       .  S
C964        C965   1.415       .  A
C965        C966   1.415       .  A
C965        C968   1.451       .  S
C966        C969   1.451       .  S
C967        N974   1.157       .  T
C968       N2143   1.157       .  T
C969       N2141   1.158       .  T
C970        N972   1.157       .  T
N971       C2139   1.158       .  T
N973       C2138   1.157       .  T
C975       C2405   1.504       .  S
C975        C976   1.421       .  A
C975        C980   1.429       .  A
C976        C977   1.405       .  A
C976       C3321   1.453       .  S
C977        C978   1.411       .  A
C977        C984   1.455       .  S
C978        C979   1.403       .  A
C979        C980   1.413       .  A
C979        C982   1.452       .  S
C980        C983   1.451       .  S
C981       C3316   1.453       .  S
C981        N988   1.157   1_655  T
C982        N987   1.157       .  T
C983        N985   1.158       .  T
C984        N986   1.157       .  T
C989        C990   1.408       .  A
C989        C994   1.411       .  A
C990        C991   1.406       .  A
C990        C995   1.454       .  S
C991        C992   1.421       .  A
C991        C998   1.454       .  S
C992        C993   1.417       .  A
C993        C994   1.419       .  A
C993        C996   1.449       .  S
C994        C997   1.449       .  S
C995       N1002   1.157       .  T
C996       N1001   1.157       .  T
C997        N999   1.157       .  T
C998       N1000   1.158       .  T
C1003      C1008   1.421       .  A
C1003      C2174   1.427       .  A
C1004      C1005   1.416   1_565  A
C1004      C2173   1.428       .  A
C1004      C1009   1.453       .  S
C1005      C1006   1.410       .  A
C1005      C1012   1.451       .  S
C1006      C2177   1.417       .  A
C1007      C1008   1.416       .  A
C1007      C2176   1.416       .  A
C1007      C1010   1.453       .  S
C1008      C1011   1.451       .  S
C1009      N1016   1.157       .  T
C1010      N1015   1.157       .  T
C1011      N1013   1.158       .  T
C1012      N1014   1.157       .  T
C1017      C1018   1.411       .  A
C1017      C1022   1.411       .  A
C1018      C1019   1.417       .  A
C1018      C1023   1.451       .  S
C1019      C1020   1.422       .  A
C1019      C1026   1.451       .  S
C1020      C1021   1.424       .  A
C1021      C1022   1.411       .  A
C1021      C1024   1.452       .  S
C1022      C1025   1.454       .  S
C1023      N1030   1.157   1_455  T
C1024      N1029   1.157       .  T
C1025      N1027   1.157       .  T
C1026      N1028   1.158   1_455  T
C1031      C1032   1.405       .  A
C1031      C1036   1.409       .  A
C1032      C1033   1.412       .  A
C1032      C1037   1.451       .  S
C1033      C1034   1.424       .  A
C1033      C1040   1.452       .  S
C1034      C1035   1.420       .  A
C1035      C1036   1.412       .  A
C1035      C1038   1.451       .  S
C1036      C1039   1.451       .  S
C1037      N2214   1.157       .  T
C1038      N1043   1.158       .  T
C1039      N1041   1.157       .  T
C1040      N1042   1.158       .  T
N1044      C2207   1.157       .  T
C1045      C1046   1.416       .  A
C1045      C1050   1.424       .  A
C1046      C1047   1.417       .  A
C1046      C1051   1.450       .  S
C1047      C1048   1.415       .  A
C1047      C1054   1.451       .  S
C1048      C1049   1.409       .  A
C1049      C1050   1.406       .  A
C1049      C1052   1.455       .  S
C1050      C1053   1.454       .  S
C1051      N1058   1.157       .  T
C1052      N1057   1.157       .  T
C1053      N1055   1.158       .  T
C1054      N3396   1.157       .  T
N1056      C3394   1.157       .  T
C1059      C1060   1.419       .  A
C1059      C1064   1.412       .  A
C1060      C1061   1.415       .  A
C1060      C1065   1.452       .  S
C1061      C1062   1.410       .  A
C1061      C1068   1.451       .  S
C1062      C1063   1.416       .  A
C1063      C1064   1.419       .  A
C1063      C1066   1.451       .  S
C1064      C1067   1.449       .  S
C1065      N1072   1.157       .  T
C1066      N1071   1.157       .  T
C1067      N1069   1.157       .  T
C1068      N1070   1.157       .  T
C1073      C1281   1.484   1_545  S
C1073      C1074   1.409       .  A
C1073      C1078   1.416       .  A
C1074      C1075   1.410       .  A
C1074      C1079   1.451       .  S
C1075      C1076   1.415       .  A
C1075      C1082   1.452       .  S
C1076      C1077   1.409       .  A
C1077      C1078   1.415       .  A
C1077      C1080   1.449       .  S
C1078      C1081   1.450       .  S
C1079      N1086   1.157   1_545  T
C1080      N1085   1.157       .  T
C1081      N2253   1.157       .  T
C1082      N3424   1.157       .  T
N1083      C2251   1.157       .  T
N1084      C3422   1.157       .  T
C1087      C1088   1.414       .  A
C1087      C1092   1.413       .  A
C1088      C1089   1.412       .  A
C1088      C1093   1.451       .  S
C1089      C1090   1.412       .  A
C1089      C1096   1.451       .  S
C1090      C1091   1.413       .  A
C1091      C1092   1.409       .  A
C1091      C1094   1.453       .  S
C1092      C1095   1.451       .  S
C1093      N3440   1.157       .  T
C1094      N1099   1.158       .  T
C1095      N1097   1.157       .  T
C1096      N3438   1.157       .  T
N1098      C3436   1.157   1_455  T
N1100      C3433   1.157   1_455  T
C1101      C1102   1.417       .  A
C1101      C1106   1.412       .  A
C1102      C1103   1.403       .  A
C1102      C1107   1.455       .  S
C1103      C1104   1.414       .  A
C1103      C1110   1.455       .  S
C1104      C1105   1.416       .  A
C1105      C1106   1.414       .  A
C1105      C1108   1.450       .  S
C1106      C1109   1.450       .  S
C1107      N1114   1.158       .  T
C1108      N3453   1.157       .  T
C1109      N1111   1.157       .  T
C1110      N1112   1.158       .  T
N1113      C3448   1.157       .  T
C1115      C1116   1.416       .  A
C1115      C1120   1.410       .  A
C1116      C1117   1.404       .  A
C1116      C1121   1.452       .  S
C1117      C1118   1.412       .  A
C1117      C1124   1.454       .  S
C1118      C1190   1.483       .  S
C1118      C1119   1.417       .  A
C1119      C1120   1.412       .  A
C1119      C1122   1.451       .  S
C1120      C1123   1.451       .  S
C1121      N1128   1.157       .  T
C1122      N2297   1.157       .  T
C1123      N1125   1.157       .  T
C1124      N1126   1.158       .  T
N1127      C2292   1.157       .  T
C1129      C1130   1.412       .  A
C1129      C1134   1.418       .  A
C1130      C1131   1.410       .  A
C1130      C1135   1.450       .  S
C1131      C1132   1.412       .  A
C1131      C1138   1.452       .  S
C1132      C1133   1.406       .  A
C1133      C1134   1.409       .  A
C1133      C2306   1.450       .  S
C1134      C1137   1.451       .  S
C1135      N1142   1.157       .  T
C1136      C2303   1.450       .  S
C1136      N1141   1.157       .  T
C1137      N1139   1.157       .  T
C1138      N1140   1.157       .  T
C1143      C1144   1.416       .  A
C1143      C1148   1.408       .  A
C1144      C1145   1.404       .  A
C1144      C3489   1.454       .  S
C1145      C1146   1.407       .  A
C1145      C1152   1.451       .  S
C1146      C1147   1.414       .  A
C1147      C1148   1.412       .  A
C1147      C1150   1.450       .  S
C1148      C1151   1.449       .  S
C1149      C3484   1.454       .  S
C1149      N1156   1.157       .  T
C1150      N1155   1.157       .  T
C1151      N1153   1.157       .  T
C1152      N1154   1.157       .  T
C1157      C1158   1.411       .  A
C1157      C3502   1.423       .  A
C1158      C1159   1.416       .  A
C1158      C1163   1.453       .  S
C1159      C3500   1.431       .  A
C1159      C1166   1.453       .  S
C1160      C1161   1.415       .  A
C1160      C3499   1.431   1_455  A
C1161      C1162   1.418       .  A
C1161      C1164   1.451       .  S
C1162      C3497   1.423   1_455  A
C1162      C1165   1.451       .  S
C1163      N1170   1.158       .  T
C1164      N1169   1.157       .  T
C1165      N1167   1.157       .  T
C1166      N1168   1.157       .  T
Zn1171     O1175   1.910       .  S
Zn1171     O1176   1.968       .  S
Zn1171     O1180   1.997       .  S
Zn1171     O1187   2.008       .  S
Zn1172     O1175   1.950       .  S
Zn1172     O1177   2.003       .  S
Zn1172     O3519   2.033       .  S
Zn1172     O1183   2.040       .  S
Zn1173     O1175   1.945       .  S
Zn1173     O1178   2.005       .  S
Zn1173     O1181   2.071       .  S
Zn1173     O1184   2.044       .  S
Zn1174     O1175   1.897       .  S
Zn1174     O1182   1.984       .  S
Zn1174     O1185   1.969       .  S
Zn1174     O1186   2.017       .  S
O1176      C3528   1.271       .  A
O1177      C1189   1.271       .  A
O1178      C1190   1.274       .  A
O1179     Zn3512   2.033   1_455  S
O1179      C1188   1.277       .  A
O1180      C1190   1.272       .  A
O1181      C1189   1.282       .  A
O1182      C1191   1.272       .  A
O1183      C1192   1.278       .  A
O1184      C1191   1.279       .  A
O1185      C1192   1.272       .  A
O1186      C1193   1.272       .  A
O1187      C1193   1.272       .  A
C1188      O3516   1.271   1_455  A
C1188      C2313   1.475       .  S
C1189      C2327   1.506       .  S
C1191      C2299   1.484       .  S
C1192      C2274   1.482       .  S
C1193      C2257   1.482       .  S
Zn1194     O1198   1.906       .  S
Zn1194     O1199   1.985       .  S
Zn1194     O1203   2.021       .  S
Zn1194     O1210   2.007       .  S
Zn1195     O1198   1.951       .  S
Zn1195     O3540   2.055   1_455  S
Zn1195     O1202   2.041       .  S
Zn1195     O1206   1.982       .  S
Zn1196     O1198   1.916       .  S
Zn1196     O1201   2.029       .  S
Zn1196     O1204   1.986   1_455  S
Zn1196     O1207   2.000       .  S
Zn1197     O1198   1.955       .  S
Zn1197     O1205   2.040       .  S
Zn1197     O1208   2.101       .  S
Zn1197     O1209   2.079       .  S
O1199      C1211   1.273       .  A
O1200     Zn3535   2.055       .  S
O1200      C1212   1.279       .  A
O1201      C1213   1.274       .  A
O1202      C1211   1.278       .  A
O1203      C1213   1.275       .  A
O1204      C3552   1.272       .  A
O1205      C1214   1.277       .  A
O1206      C1215   1.269       .  A
O1207      C1214   1.273       .  A
O1208      C1215   1.286       .  A
O1209      C1216   1.283       .  A
O1210      C1216   1.273       .  A
C1211      C2218   1.487       .  S
C1212      O3544   1.272       .  A
C1212      C2246   1.481       .  S
C1213      C2187   1.490       .  S
C1214      C2204   1.502       .  S
C1215      C2330   1.516       .  S
C1216      C2232   1.493       .  S
Zn1217     O1221   1.953       .  S
Zn1217     O1222   2.072       .  S
Zn1217     O1226   2.070       .  S
Zn1217     O1233   1.988       .  S
Zn1218     O1221   1.918       .  S
Zn1218     O1223   1.996       .  S
Zn1218     O1225   1.956       .  S
Zn1218     O1229   1.997       .  S
Zn1219     O1221   1.898       .  S
Zn1219     O1224   1.989       .  S
Zn1219     O1227   2.007       .  S
Zn1220     O1221   1.959       .  S
Zn1220     O1231   2.054       .  S
Zn1220     O1232   2.065       .  S
O1222      C1234   1.282       .  A
O1223      C1235   1.269       .  A
O1224      C1236   1.269       .  A
O1225      C1234   1.269       .  A
O1226      C1236   1.280       .  A
O1227      C1235   1.273       .  A
O1228      C1237   1.281       .  A
O1229      C1238   1.272       .  A
O1230      C1237   1.269       .  A
O1231      C1238   1.278       .  A
O1232      C1239   1.282       .  A
O1233      C1239   1.271       .  A
C1234      C2215   1.494       .  S
C1235      C4485   1.504   1_455  S
C1236      C2173   1.516       .  S
C1237      C2201   1.477       .  S
C1238      C2131   1.499       .  S
C1239      C2159   1.481       .  S
Zn1240     O1244   1.916       .  S
Zn1240     O1245   1.975       .  S
Zn1240     O1249   1.991       .  S
Zn1240     O1256   1.979       .  S
Zn1241     O1244   1.974       .  S
Zn1241     O1246   2.065       .  S
Zn1241     O1248   2.036       .  S
Zn1241     O1252   2.088       .  S
Zn1242     O1244   1.926       .  S
Zn1242     O1247   2.038       .  S
Zn1242     O1250   1.999       .  S
Zn1242     O1253   2.000       .  S
Zn1243     O1244   1.949       .  S
Zn1243     O1251   2.021       .  S
Zn1243     O1254   1.976       .  S
O1245      C1257   1.268       .  A
O1246      C1258   1.282       .  A
O1247      C1259   1.275       .  A
O1248      C1257   1.275       .  A
O1249      C1259   1.269       .  A
O1250      C1258   1.274       .  A
O1251      C1260   1.274       .  A
O1252      C1261   1.283       .  A
O1253      C1260   1.272       .  A
O1254      C1261   1.269       .  A
O1255      C1262   1.276       .  A
C1257      C2316   1.471       .  S
C1258      C2120   1.503       .  S
C1259      C2089   1.486       .  S
C1260      C2302   1.473       .  S
C1261      C2176   1.498       .  S
C1262      C2103   1.480       .  S
Zn1263     O1267   1.890       .  S
Zn1263     O1268   2.047       .  S
Zn1263     O1272   1.977       .  S
Zn1263     O1279   2.011       .  S
Zn1264     O1267   1.899       .  S
Zn1264     O1269   1.991       .  S
Zn1264     O1271   1.990       .  S
Zn1264     O1275   1.955       .  S
Zn1265     O1267   1.955       .  S
Zn1265     O1270   2.087       .  S
Zn1265     O1273   2.057       .  S
Zn1265     O1276   2.122       .  S
Zn1266     O1267   1.934       .  S
Zn1266     O1274   1.983       .  S
Zn1266     O1277   2.049       .  S
Zn1266     O1278   2.078       .  S
O1268      C1280   1.277       .  A
O1269      C1281   1.270       .  A
O1270      C1282   1.288       .  A
O1271      C1280   1.269       .  A
O1272      C1282   1.274       .  A
O1273      C1281   1.277       .  A
O1274      C1283   1.269       .  A
O1275      C1284   1.271       .  A
O1276      C1283   1.289       .  A
O1277      C1284   1.282       .  A
O1278      C1285   1.281       .  A
O1279      C1285   1.274       .  A
C1280      C2061   1.486       .  S
C1282      C2162   1.501       .  S
C1283      C2078   1.519       .  S
C1284      C2148   1.473       .  S
C1285      C2229   1.497       .  S
Zn1286     O1290   1.913       .  S
Zn1286     O1291   2.010       .  S
Zn1286     O1295   2.041       .  S
Zn1286     O1302   1.963       .  S
Zn1287     O1290   1.940       .  S
Zn1287     O1292   2.058       .  S
Zn1287     O1294   2.063       .  S
Zn1287     O1298   1.982       .  S
Zn1288     O1290   1.905       .  S
Zn1288     O1293   1.987       .  S
Zn1288     O1296   1.951       .  S
Zn1288     O1299   1.982       .  S
Zn1289     O1290   1.961       .  S
Zn1289     O1297   2.065       .  S
Zn1289     O1300   2.075       .  S
Zn1289     O1301   2.054       .  S
O1291      C1303   1.271       .  A
O1292      C1304   1.282       .  A
O1293      C1305   1.269       .  A
O1294      C1303   1.278       .  A
O1295      C1305   1.277       .  A
O1296      C1304   1.268       .  A
O1297      C1306   1.278       .  A
O1298      C1307   1.271       .  A
O1299      C1306   1.269       .  A
O1300      C1307   1.283       .  A
O1301      C1308   1.281       .  A
O1302      C1308   1.271       .  A
C1303      C2075   1.496       .  S
C1304      C2271   1.485       .  S
C1305      C4446   1.483       .  S
C1306      C2047   1.514       .  S
C1307      C2117   1.494       .  S
C1308      C2285   1.477       .  S
Zn1309     O1313   1.913       .  S
Zn1309     O1314   1.986       .  S
Zn1309     O1318   1.975       .  S
Zn1309     O1325   1.981       .  S
Zn1310     O3653   1.905       .  S
Zn1310     O1315   1.954       .  S
Zn1310     O1317   2.016       .  S
Zn1310     O1321   1.985       .  S
Zn1311     O1313   1.961       .  S
Zn1311     O1316   2.033       .  S
Zn1311     O3659   2.050   1_455  S
Zn1311     O1322   1.994       .  S
Zn1312     O1313   1.958       .  S
Zn1312     O1320   2.065       .  S
Zn1312     O3663   2.051   1_455  S
Zn1312     O1324   2.019       .  S
O1313     Zn3650   1.905   1_455  S
O1314      C3666   1.269       .  A
O1315      C1327   1.268       .  A
O1316      C1328   1.276       .  A
O1317      C1326   1.271       .  A
O1318      C1328   1.271       .  A
O1319     Zn3651   2.050       .  S
O1319      C1327   1.277       .  A
O1320      C1329   1.281       .  A
O1321      C1330   1.271       .  A
O1322      C1329   1.272       .  A
O1323     Zn3652   2.051       .  S
O1323      C1330   1.278       .  A
O1324      C1331   1.273       .  A
O1325      C1331   1.269       .  A
C1326      O3654   1.269       .  A
C1326      C4306   1.478       .  S
C1327      C2019   1.499       .  S
C1328      C1980   1.475       .  S
C1329      C2036   1.496       .  S
C1330      C1991   1.481       .  S
C1331      C2005   1.467       .  S
Zn1332     O1336   1.907       .  S
Zn1332     O1337   1.975       .  S
Zn1332     O1341   1.998       .  S
Zn1332     O1348   2.022       .  S
Zn1333     O1336   1.965       .  S
Zn1333     O3678   2.069   1_455  S
Zn1333     O1340   2.063       .  S
Zn1333     O1344   2.050       .  S
Zn1334     O1336   1.942       .  S
Zn1334     O1339   2.053       .  S
Zn1334     O1342   1.968       .  S
Zn1334     O1345   2.074       .  S
Zn1335     O1336   1.913       .  S
Zn1335     O1343   1.977       .  S
Zn1335     O1346   2.002       .  S
Zn1335     O1347   1.985       .  S
O1337      C1349   1.271       .  A
O1338     Zn3673   2.069       .  S
O1338      C1350   1.281       .  A
O1339      C1351   1.279       .  A
O1340      C1349   1.280       .  A
O1341      C1351   1.271       .  A
O1342      C3690   1.270   1_455  A
O1343      C1352   1.270       .  A
O1344      C1353   1.277       .  A
O1345      C1352   1.282       .  A
O1346      C1353   1.272       .  A
O1347      C1354   1.269       .  A
O1348      C1354   1.275       .  A
C1349      C1921   1.476       .  S
C1350      O3682   1.270       .  A
C1350      C1938   1.487       .  S
C1351      C2033   1.504       .  S
C1352      C1910   1.507       .  S
C1353      C2190   1.507       .  S
C1354      C1952   1.472       .  S
Zn1355     O1359   1.903       .  S
Zn1355     O1360   1.980       .  S
Zn1355     O1364   1.991       .  S
Zn1355     O1371   1.957       .  S
Zn1356     O1359   1.969       .  S
Zn1356     O1361   2.058       .  S
Zn1356     O1363   2.036       .  S
Zn1356     O1367   2.083       .  S
Zn1357     O1359   1.916       .  S
Zn1357     O1362   2.042       .  S
Zn1357     O1365   1.977       .  S
Zn1357     O1368   2.001       .  S
Zn1358     O1359   1.947       .  S
Zn1358     O1366   2.049       .  S
Zn1358     O1369   1.986       .  S
Zn1358     O1370   2.040       .  S
O1360      C1372   1.269       .  A
O1361      C1373   1.281       .  A
O1362      C1374   1.275       .  A
O1363      C1372   1.275       .  A
O1364      C1374   1.269       .  A
O1365      C1373   1.273       .  A
O1366      C1375   1.277       .  A
O1367      C1376   1.282       .  A
O1368      C1375   1.272       .  A
O1369      C1376   1.270       .  A
O1370      C1377   1.278       .  A
O1371      C1377   1.269       .  A
C1372      C1879   1.475       .  S
C1374      C2064   1.483       .  S
C1375      C1865   1.481       .  S
C1376      C1896   1.503       .  S
C1377      C1949   1.480       .  S
Zn1378     O1382   1.896       .  S
Zn1378     O1383   2.018       .  S
Zn1378     O1387   2.021       .  S
Zn1378     O1394   1.973       .  S
Zn1379     O1382   1.910       .  S
Zn1379     O1384   2.057       .  S
Zn1379     O1386   2.047       .  S
Zn1379     O1390   1.989       .  S
Zn1380     O1382   1.906       .  S
Zn1380     O1385   1.989       .  S
Zn1380     O1388   2.009       .  S
Zn1380     O1391   2.010       .  S
Zn1381     O1382   1.942       .  S
Zn1381     O1389   2.037       .  S
Zn1381     O1392   2.065       .  S
Zn1381     O1393   2.067       .  S
O1383      C1395   1.273       .  A
O1384      C1396   1.282       .  A
O1385      C1397   1.270       .  A
O1386      C1395   1.278       .  A
O1387      C1397   1.276       .  A
O1388      C1396   1.276       .  A
O1389      C1398   1.275       .  A
O1390      C1399   1.274       .  A
O1391      C1398   1.275       .  A
O1392      C1399   1.282       .  A
O1393      C1400   1.282       .  A
O1394      C1400   1.271       .  A
C1395      C1893   1.518       .  S
C1396      C1851   1.508       .  S
C1397      C1977   1.479       .  S
C1398      C1823   1.509       .  S
C1399      C1994   1.491       .  S
C1400      C1837   1.477       .  S
Zn1401     O1406   1.956       .  S
Zn1401     O1410   2.012       .  S
Zn1401     O1417   2.012       .  S
Zn1402     O1405   1.953       .  S
Zn1402     O1407   2.073       .  S
Zn1402     O1413   2.056       .  S
Zn1403     O1405   1.909       .  S
Zn1403     O1408   2.048       .  S
Zn1403     O1411   1.992       .  S
Zn1403     O1414   2.043       .  S
Zn1404     O1405   1.899       .  S
Zn1404     O1412   1.971       .  S
Zn1404     O1415   2.002       .  S
O1406      C1418   1.266       .  A
O1407      C1419   1.283       .  A
O1409      C1418   1.281       .  A
O1410      C1420   1.272       .  A
O1411      C1419   1.273       .  A
O1412      C1421   1.273       .  A
O1413      C1422   1.280       .  A
O1414      C1421   1.280       .  A
O1415      C1422   1.275       .  A
O1416      C1423   1.273       .  A
O1417      C1423   1.273       .  A
C1418      C2008   1.486       .  S
C1419      C1854   1.507       .  S
C1420      C1812   1.495       .  S
C1421      C2022   1.474       .  S
C1422      C1795   1.493       .  S
C1423      C1840   1.486       .  S
Zn1424     O1428   1.950       .  S
Zn1424     O1429   2.052       .  S
Zn1424     O1433   2.027       .  S
Zn1424     O1440   2.083       .  S
Zn1425     O1428   1.897       .  S
Zn1425     O1430   2.021       .  S
Zn1425     O1432   1.995       .  S
Zn1425     O1436   1.994       .  S
Zn1426     O1428   1.917       .  S
Zn1426     O1431   2.017       .  S
Zn1426     O1434   2.022       .  S
Zn1426     O1437   1.983       .  S
Zn1427     O1428   1.944       .  S
Zn1427     O1435   2.045       .  S
Zn1427     O1439   1.983       .  S
O1429      C1441   1.281       .  A
O1430      C1442   1.275       .  A
O1431      C1443   1.275       .  A
O1432      C1441   1.274       .  A
O1433      C1443   1.275       .  A
O1434      C1442   1.274       .  A
O1435      C1444   1.279       .  A
O1437      C1444   1.273       .  A
O1438      C1445   1.278       .  A
O1439      C1446   1.270       .  A
O1440      C1446   1.284       .  A
C1441      C4208   1.486   1_455  S
C1442      C2134   1.489       .  S
C1443      C1924   1.507       .  S
C1444      C1882   1.479       .  S
C1445      C1907   1.488       .  S
C1446      C1809   1.506       .  S
Zn1447     O1451   1.916       .  S
Zn1447     O1452   1.985       .  S
Zn1447     O1456   2.000       .  S
Zn1447     O1463   2.031       .  S
Zn1448     O1451   1.976       .  S
Zn1448     O1453   2.105       .  S
Zn1448     O1455   2.066       .  S
Zn1448     O1459   2.036       .  S
Zn1449     O1451   1.938       .  S
Zn1449     O1454   2.036       .  S
Zn1449     O1457   1.955       .  S
Zn1449     O1460   2.033       .  S
Zn1450     O1451   1.918       .  S
Zn1450     O1458   1.978       .  S
Zn1450     O1461   1.995       .  S
Zn1450     O1462   2.011       .  S
O1452      C1464   1.271       .  A
O1453      C1465   1.285       .  A
O1454      C1466   1.275       .  A
O1455      C1464   1.282       .  A
O1456      C1466   1.272       .  A
O1457      C1465   1.266       .  A
O1458      C1467   1.270       .  A
O1459      C1468   1.276       .  A
O1460      C1467   1.276       .  A
O1461      C1468   1.272       .  A
O1462      C1469   1.271       .  A
O1463      C1469   1.274       .  A
C1464      C4065   1.517       .  S
C1465      C1781   1.499       .  S
C1466      C1753   1.478       .  S
C1467      C1739   1.474       .  S
C1468      C1770   1.503       .  S
C1469      C2050   1.481       .  S
Zn1470     O1474   1.946       .  S
Zn1470     O1475   2.061       .  S
Zn1470     O1479   2.062       .  S
Zn1470     O1486   2.006       .  S
Zn1471     O1474   1.927       .  S
Zn1471     O1476   1.990       .  S
Zn1471     O1478   1.978       .  S
Zn1471     O1482   2.001       .  S
Zn1472     O1474   1.923       .  S
Zn1472     O1477   1.998       .  S
Zn1472     O1480   2.021       .  S
Zn1472     O1483   1.975       .  S
Zn1473     O1474   1.953       .  S
Zn1473     O1481   2.044       .  S
Zn1473     O1484   2.046       .  S
Zn1473     O1485   2.051       .  S
O1475      C1487   1.282       .  A
O1476      C1488   1.269       .  A
O1477      C1489   1.270       .  A
O1478      C1487   1.270       .  A
O1479      C1489   1.280       .  A
O1480      C1488   1.274       .  A
O1481      C1490   1.277       .  A
O1482      C1491   1.271       .  A
O1483      C1490   1.271       .  A
O1484      C1491   1.277       .  A
O1485      C1492   1.280       .  A
O1486      C1492   1.273       .  A
C1487      C1683   1.507       .  S
C1488      C1700   1.473       .  S
C1489      C1784   1.516       .  S
C1490      C1669   1.472       .  S
C1491      C1826   1.506       .  S
C1492      C1714   1.484       .  S
Zn1493     O1497   1.911       .  S
Zn1493     O1498   1.990       .  S
Zn1493     O1502   1.938       .  S
Zn1493     O1509   1.986       .  S
Zn1494     O1497   1.914       .  S
Zn1494     O1499   1.989       .  S
Zn1494     O1501   2.039       .  S
Zn1494     O1505   2.007       .  S
Zn1495     O1497   1.961       .  S
Zn1495     O1500   2.060       .  S
Zn1495     O1506   2.014       .  S
Zn1496     O1497   1.956       .  S
Zn1496     O1504   2.077       .  S
Zn1496     O1507   2.044       .  S
Zn1496     O1508   2.025       .  S
O1498      C1510   1.268       .  A
O1500      C1512   1.279       .  A
O1501      C1510   1.274       .  A
O1502      C1512   1.267       .  A
O1503      C1511   1.281       .  A
O1504      C1513   1.282       .  A
O1505      C1514   1.275       .  A
O1506      C1513   1.273       .  A
O1507      C1514   1.279       .  A
O1508      C1515   1.274       .  A
O1509      C1515   1.271       .  A
C1510      C2092   1.490       .  S
C1511      C1728   1.492       .  S
C1512      C1644   1.487       .  S
C1513      C1658   1.498       .  S
C1514      C1627   1.484       .  S
C1515      C1742   1.494       .  S
Zn1516     O1520   1.916       .  S
Zn1516     O1521   2.019       .  S
Zn1517     O1520   1.861       .  S
Zn1517     O1522   1.994       .  S
Zn1517     O1524   1.973       .  S
Zn1517     O1528   1.950       .  S
Zn1518     O1523   2.059       .  S
Zn1518     O1526   2.071   1_565  S
Zn1518     O1529   1.943       .  S
Zn1519     O1520   1.941       .  S
Zn1519     O1530   2.067       .  S
O1521      C1533   1.273       .  A
O1522      C1534   1.268       .  A
O1523      C1535   1.283       .  A
O1524      C1533   1.270       .  A
O1525      C1535   1.275       .  A
O1527      C1536   1.282       .  A
O1528      C1537   1.269       .  A
O1529      C1536   1.267       .  A
O1530      C1537   1.282       .  A
O1531      C1538   1.276       .  A
O1532      C1538   1.275       .  A
C1533      C1613   1.488       .  S
C1534      C1655   1.498       .  S
C1535      C1711   1.491       .  S
C1536      C1599   1.490       .  S
C1537      C1697   1.470       .  S
Zn1539     O1543   1.893       .  S
Zn1539     O1544   2.021       .  S
Zn1539     O1548   2.038       .  S
Zn1539     O1555   1.981       .  S
Zn1540     O1543   1.895       .  S
Zn1540     O3885   2.003   1_455  S
Zn1540     O1547   1.979       .  S
Zn1540     O1551   1.992       .  S
Zn1541     O3883   1.870       .  S
Zn1541     O1546   2.018       .  S
Zn1541     O1549   2.013       .  S
Zn1541     O1552   1.963       .  S
Zn1542     O1543   1.941       .  S
Zn1542     O3890   2.061   1_455  S
Zn1542     O1553   2.025       .  S
Zn1542     O1554   2.053       .  S
O1543     Zn3881   1.870   1_455  S
O1544      C1556   1.280       .  A
O1545     Zn3880   2.003       .  S
O1545      C1557   1.270       .  A
O1546      C1558   1.273       .  A
O1547      C1556   1.274       .  A
O1548      C3898   1.278   1_455  A
O1549      C1557   1.274       .  A
O1550     Zn3882   2.061       .  S
O1550      C1559   1.279       .  A
O1551      C1560   1.274       .  A
O1552      C1559   1.267       .  A
O1553      C1560   1.277       .  A
O1554      C1561   1.280       .  A
O1555      C1561   1.270       .  A
C1556      C1602   1.468       .  S
C1557      C1672   1.483       .  S
C1558      O3888   1.278       .  A
C1558      C1585   1.491       .  S
C1559      C1616   1.483       .  S
C1560      C1963   1.492       .  S
C1561      C1686   1.491       .  S
Zn1562     O1566   1.917       .  S
Zn1562     O3907   1.989       .  S
Zn1562     O1571   2.019       .  S
Zn1562     O1578   1.985       .  S
Zn1563     O1566   1.953       .  S
Zn1563     O1568   2.039       .  S
Zn1563     O3910   2.047       .  S
Zn1563     O1574   1.987       .  S
Zn1564     O1566   1.921       .  S
Zn1564     O1569   1.999       .  S
Zn1564     O1572   1.987       .  S
Zn1564     O1575   1.980       .  S
Zn1565     O1566   1.974       .  S
Zn1565     O1573   2.023       .  S
Zn1565     O1576   2.069       .  S
Zn1565     O1577   2.050       .  S
O1567     Zn3902   1.989       .  S
O1567      C1579   1.271   1_655  A
O1568      C1580   1.277       .  A
O1569      C1581   1.270       .  A
O1570     Zn3903   2.047   1_455  S
O1570      C1579   1.277       .  A
O1571      C1581   1.273       .  A
O1572      C1580   1.272       .  A
O1573      C1582   1.272       .  A
O1574      C1583   1.270       .  A
O1575      C1582   1.270       .  A
O1576      C1583   1.280       .  A
O1577      C1584   1.279       .  A
O1578      C1584   1.272       .  A
C1579      C1630   1.478       .  S
C1580      C1767   1.483       .  S
C1581      C2260   1.482       .  S
C1582      C1641   1.470       .  S
C1583      C1588   1.484       .  S
C1585      C3926   1.417       .  A
C1585      C1590   1.414       .  A
C1586      C3925   1.417       .  A
C1586      C3927   1.412       .  A
C1586      C1591   1.451   1_655  S
C1587      C3926   1.412       .  A
C1587      C1588   1.410       .  A
C1587      C3934   1.450       .  S
C1588      C1589   1.413       .  A
C1589      C1590   1.415       .  A
C1589      C1592   1.450       .  S
C1590      C1593   1.451       .  S
C1591      N1598   1.157       .  T
C1592      N1597   1.157       .  T
C1593      N1595   1.157       .  T
C1594      C3927   1.450       .  S
C1594      N1596   1.157   1_655  T
C1599      C1600   1.427       .  A
C1599      C1604   1.416       .  A
C1600      C1601   1.403       .  A
C1600      C1605   1.455       .  S
C1601      C1602   1.404       .  A
C1601      C1608   1.455       .  S
C1602      C1603   1.410       .  A
C1603      C1604   1.411       .  A
C1603      C1606   1.452       .  S
C1604      C1607   1.450       .  S
C1605      N1612   1.157       .  T
C1606      N1611   1.157       .  T
C1607      N1609   1.157       .  T
C1608      N1610   1.157       .  T
C1613      C1614   1.417       .  A
C1613      C1618   1.419       .  A
C1614      C1615   1.400       .  A
C1614      C1619   1.457       .  S
C1615      C1616   1.418       .  A
C1615      C1622   1.456       .  S
C1616      C1617   1.411       .  A
C1617      C1618   1.415       .  A
C1617      C1620   1.450       .  S
C1618      C1621   1.451       .  S
C1619      N1626   1.158       .  T
C1620      N1625   1.157       .  T
C1621      N1623   1.158       .  T
C1622      N1624   1.157       .  T
C1627      C1628   1.410       .  A
C1627      C1632   1.417       .  A
C1628      C1629   1.410       .  A
C1628      C1633   1.450       .  S
C1629      C1630   1.413       .  A
C1629      C1636   1.452       .  S
C1630      C1631   1.408       .  A
C1631      C1632   1.413       .  A
C1631      C1634   1.450       .  S
C1632      C1635   1.451       .  S
C1633      N1640   1.157       .  T
C1634      N1639   1.157       .  T
C1635      N1637   1.158       .  T
C1636      N1638   1.157   1_455  T
C1641      C1642   1.404       .  A
C1641      C1646   1.412       .  A
C1642      C1643   1.400       .  A
C1642      C1647   1.455       .  S
C1643      C1644   1.423       .  A
C1643      C1650   1.455       .  S
C1644      C1645   1.414       .  A
C1645      C1646   1.416       .  A
C1646      C1649   1.450       .  S
C1647      N1654   1.157       .  T
C1648      N1653   1.157   1_545  T
C1650      N1652   1.157       .  T
C1655      C1656   1.415       .  A
C1655      C1660   1.416       .  A
C1656      C1657   1.416       .  A
C1656      C1661   1.451       .  S
C1657      C1658   1.415       .  A
C1657      C1664   1.449       .  S
C1658      C1659   1.414       .  A
C1659      C1660   1.418       .  A
C1659      C1662   1.449       .  S
C1661      N1668   1.157       .  T
C1663      N1665   1.158       .  T
C1664      N1666   1.157       .  T
C1669      C1670   1.407       .  A
C1669      C1674   1.410       .  A
C1670      C1671   1.411       .  A
C1670      C1675   1.451       .  S
C1671      C1672   1.418       .  A
C1671      C1678   1.451       .  S
C1672      C1673   1.411       .  A
C1673      C1674   1.407       .  A
C1673      C1676   1.451       .  S
C1674      C1677   1.451       .  S
C1675      N1682   1.157       .  T
C1676      N1681   1.157       .  T
C1677      N1679   1.157       .  T
C1678      N1680   1.157       .  T
C1683      C1684   1.418       .  A
C1683      C1688   1.428       .  A
C1684      C1685   1.414       .  A
C1684      C1689   1.451       .  S
C1685      C1686   1.416       .  A
C1685      C1692   1.452       .  S
C1686      C1687   1.411       .  A
C1687      C1688   1.413       .  A
C1687      C1690   1.454       .  S
C1688      C1691   1.454       .  S
C1689      N1696   1.157       .  T
C1690      N1695   1.158       .  T
C1691      N1693   1.158       .  T
C1692      N1694   1.157       .  T
C1697      C1698   1.412       .  A
C1697      C1702   1.411       .  A
C1698      C1699   1.410       .  A
C1698      C1703   1.451       .  S
C1699      C1700   1.410       .  A
C1699      C1706   1.450       .  S
C1700      C1701   1.411       .  A
C1701      C1702   1.407       .  A
C1701      C1704   1.452       .  S
C1702      C1705   1.452       .  S
C1703      N1710   1.157       .  T
C1704      N1709   1.157       .  T
C1705      N1707   1.157       .  T
C1706      N1708   1.157       .  T
C1711      C1712   1.413       .  A
C1711      C1716   1.419       .  A
C1712      C1713   1.415       .  A
C1712      C1717   1.450       .  S
C1713      C1714   1.413       .  A
C1713      C1720   1.449       .  S
C1714      C1715   1.410       .  A
C1715      C1716   1.410       .  A
C1715      C1718   1.453       .  S
C1716      C1719   1.453       .  S
C1717      N1724   1.157       .  T
C1718      N1723   1.157       .  T
C1719      N1721   1.158       .  T
C1720      N1722   1.157       .  T
C1725      C3804   1.517   1_455  S
C1725      C1726   1.425       .  A
C1725      C1730   1.431       .  A
C1726      C1727   1.418       .  A
C1726      C1731   1.450       .  S
C1727      C1728   1.410       .  A
C1727      C1734   1.449       .  S
C1728      C1729   1.409       .  A
C1729      C1730   1.410       .  A
C1729      C1732   1.456       .  S
C1730      C1733   1.453       .  S
C1731      N1738   1.157       .  T
C1733      N4075   1.158   1_455  T
C1734      N1736   1.157       .  T
N1735      C4073   1.158       .  T
C1739      C1740   1.407       .  A
C1739      C1744   1.410       .  A
C1740      C1741   1.408       .  A
C1740      C1745   1.452       .  S
C1741      C1742   1.421       .  A
C1741      C1748   1.452       .  S
C1742      C1743   1.419       .  A
C1743      C1744   1.411       .  A
C1743      C1746   1.452       .  S
C1744      C1747   1.452       .  S
C1745      N1752   1.157       .  T
C1746      N1751   1.158       .  T
C1747      N1749   1.157       .  T
C1748      N1750   1.158       .  T
C1753      C1754   1.406       .  A
C1753      C1758   1.414       .  A
C1754      C1755   1.409       .  A
C1754      C1759   1.451       .  S
C1755      C1756   1.419       .  A
C1755      C1762   1.452       .  S
C1756      C1757   1.412       .  A
C1757      C1758   1.413       .  A
C1758      C1761   1.451       .  S
C1759      N1766   1.157       .  T
C1760      N1765   1.157       .  T
C1761      N1763   1.157       .  T
C1762      N1764   1.157   1_565  T
C1767      C1768   1.408       .  A
C1767      C1772   1.412       .  A
C1768      C1769   1.409       .  A
C1768      C1773   1.453       .  S
C1769      C1770   1.423       .  A
C1769      C1776   1.453       .  S
C1770      C1771   1.422       .  A
C1771      C1772   1.414       .  A
C1771      C1774   1.451       .  S
C1772      C4115   1.452       .  S
C1773      N1780   1.157       .  T
C1774      N4119   1.158       .  T
C1775      C4112   1.452       .  S
C1775      N1777   1.157       .  T
C1776      N1778   1.158       .  T
N1779      C4114   1.158       .  T
C1781      C1782   1.418       .  A
C1781      C1786   1.411       .  A
C1782      C1783   1.414       .  A
C1782      C1787   1.454       .  S
C1783      C1784   1.421       .  A
C1783      C1790   1.452       .  S
C1784      C1785   1.428       .  A
C1785      C1786   1.420       .  A
C1785      C1788   1.452       .  S
C1786      C1789   1.451       .  S
C1787      N1794   1.157       .  T
C1788      N1793   1.157       .  T
C1789      N1791   1.157       .  T
C1790      N1792   1.158       .  T
C1795      C1800   1.416       .  A
C1796      C1797   1.417   1_554  A
C1796      C1801   1.451       .  S
C1797      C1804   1.450       .  S
C1798      C1799   1.414       .  A
C1799      C1800   1.409   1_556  A
C1799      C1802   1.453       .  S
C1800      C1803   1.451       .  S
C1801      N1808   1.157       .  T
C1802      N1807   1.157       .  T
C1803      N1805   1.157       .  T
C1804      N1806   1.157       .  T
C1809      C1810   1.414       .  A
C1809      C1814   1.427       .  A
C1810      C1811   1.417       .  A
C1810      C1815   1.451       .  S
C1811      C1812   1.419       .  A
C1811      C1818   1.450       .  S
C1812      C1813   1.407       .  A
C1813      C1814   1.412       .  A
C1813      C1816   1.453       .  S
C1814      C1817   1.451       .  S
C1815      N1822   1.157       .  T
C1817      N1819   1.157       .  T
C1818      N1820   1.157       .  T
C1823      C1824   1.419       .  A
C1823      C1828   1.424       .  A
C1824      C1825   1.413   1_554  A
C1824      C1829   1.455       .  S
C1825      C1826   1.422       .  A
C1825      C1832   1.452       .  S
C1826      C1827   1.416       .  A
C1827      C1828   1.417   1_556  A
C1827      C1830   1.453       .  S
C1828      C1831   1.451       .  S
C1829      N1836   1.157       .  T
C1830      N1835   1.156       .  T
C1831      N1833   1.159       .  T
C1832      N1834   1.159       .  T
C1837      C1838   1.412       .  A
C1837      C1842   1.411       .  A
C1838      C1839   1.411       .  A
C1838      C1843   1.452       .  S
C1839      C1840   1.414       .  A
C1839      C1846   1.452       .  S
C1840      C1841   1.413       .  A
C1841      C1842   1.412       .  A
C1841      C1844   1.451       .  S
C1842      C1845   1.451       .  S
C1843      N1850   1.157       .  T
C1844      N1849   1.157       .  T
C1845      N1847   1.157       .  T
C1846      N1848   1.157       .  T
C1851      C1852   1.417       .  A
C1851      C1856   1.423       .  A
C1852      C1853   1.415       .  A
C1852      C1857   1.452       .  S
C1853      C1854   1.422       .  A
C1853      C1860   1.453       .  S
C1854      C1855   1.416       .  A
C1855      C1856   1.416       .  A
C1855      C1858   1.451       .  S
C1856      C1859   1.453       .  S
C1857      N1864   1.158       .  T
C1858      N1863   1.157       .  T
C1859      N1861   1.158       .  T
C1860      N1862   1.158       .  T
C1865      C1866   1.407       .  A
C1865      C1870   1.414       .  A
C1866      C1867   1.412       .  A
C1866      C1871   1.450       .  S
C1867      C1868   1.417       .  A
C1867      C4214   1.452       .  S
C1868      C3781   1.486       .  S
C1868      C1869   1.411       .  A
C1869      C1870   1.412       .  A
C1869      C1872   1.450       .  S
C1870      C1873   1.451       .  S
C1871      N1878   1.157       .  T
C1872      N1877   1.157       .  T
C1873      N1875   1.157       .  T
C1874      C4207   1.452       .  S
C1874      N1876   1.157   1_655  T
C1879      C1880   1.414       .  A
C1879      C1884   1.409       .  A
C1880      C1881   1.413       .  A
C1880      C1885   1.451       .  S
C1881      C1882   1.409       .  A
C1882      C1883   1.416       .  A
C1883      C1884   1.406       .  A
C1883      C1886   1.454       .  S
C1884      C1887   1.452       .  S
C1886      N1891   1.157       .  T
C1887      N1889   1.157       .  T
C1888      N1890   1.157       .  T
C1893      C1894   1.427       .  A
C1893      C1898   1.424       .  A
C1894      C1895   1.419       .  A
C1894      C1899   1.452       .  S
C1895      C1896   1.412       .  A
C1895      C1902   1.451       .  S
C1896      C1897   1.417       .  A
C1897      C1898   1.416       .  A
C1897      C1900   1.454       .  S
C1898      C1901   1.453       .  S
C1899      N1906   1.158       .  T
C1900      N1905   1.158       .  T
C1901      N1903   1.158       .  T
C1902      N1904   1.157       .  T
C1907      C1908   1.408       .  A
C1907      C1912   1.413       .  A
C1908      C1909   1.408       .  A
C1908      C1913   1.455       .  S
C1909      C1910   1.427       .  A
C1909      C1916   1.454       .  S
C1910      C1911   1.420       .  A
C1911      C1912   1.420       .  A
C1911      C1914   1.450       .  S
C1912      C1915   1.450       .  S
C1913      N1920   1.157       .  T
C1914      N1919   1.157       .  T
C1915      N1917   1.157       .  T
C1916      N1918   1.158       .  T
C1921      C1922   1.406       .  A
C1921      C1926   1.408       .  A
C1922      C1923   1.413       .  A
C1922      C1927   1.451       .  S
C1923      C1924   1.424       .  A
C1923      C1930   1.451       .  S
C1924      C1925   1.423       .  A
C1925      C1926   1.412       .  A
C1925      C1928   1.451       .  S
C1926      C4269   1.453       .  S
C1927      N1934   1.157       .  T
C1928      N4273   1.158       .  T
C1929      C4266   1.453       .  S
C1929      N1931   1.157       .  T
C1930      N1932   1.158       .  T
N1933      C4268   1.158       .  T
C1935      C1936   1.410       .  A
C1935      C1940   1.413       .  A
C1936      C1937   1.403       .  A
C1937      C1938   1.418       .  A
C1937      C4284   1.454       .  S
C1938      C1939   1.414       .  A
C1939      C1940   1.418       .  A
C1939      C1942   1.449       .  S
C1940      C1943   1.450       .  S
C1941      N1948   1.157       .  T
C1942      N1947   1.157       .  T
C1943      N1945   1.157       .  T
C1944      C4277   1.454   1_455  S
C1944      N1946   1.157       .  T
C1949      C1950   1.416       .  A
C1949      C1954   1.416       .  A
C1950      C1951   1.411       .  A
C1950      C1955   1.451       .  S
C1951      C1952   1.410       .  A
C1951      C1958   1.451       .  S
C1952      C1953   1.409       .  A
C1953      C1954   1.405       .  A
C1953      C1956   1.453       .  S
C1954      C1957   1.453       .  S
C1955      N1962   1.157       .  T
C1956      N1961   1.157       .  T
C1957      N1959   1.157       .  T
C1958      N1960   1.157       .  T
C1963      C1964   1.420   1_455  A
C1963      C4308   1.419       .  A
C1964      C1965   1.412   1_556  A
C1964      C1969   1.451       .  S
C1965      C1966   1.410   1_655  A
C1965      C1972   1.452       .  S
C1966      C3666   1.478       .  S
C1966      C4307   1.410       .  A
C1967      C4306   1.410       .  A
C1967      C1968   1.406   1_554  A
C1967      C1970   1.454       .  S
C1968      C4303   1.419       .  A
C1968      C1971   1.453       .  S
C1969      N1976   1.157       .  T
C1970      N1975   1.157       .  T
C1971      N1973   1.157       .  T
C1972      N1974   1.157       .  T
C1977      C1978   1.416       .  A
C1977      C1982   1.411       .  A
C1978      C1979   1.407       .  A
C1978      C1983   1.453       .  S
C1979      C1980   1.410       .  A
C1979      C1986   1.452       .  S
C1980      C1981   1.413       .  A
C1981      C1982   1.410       .  A
C1981      C1984   1.451       .  S
C1982      C1985   1.451       .  S
C1983      N1990   1.158       .  T
C1984      N1989   1.157       .  T
C1985      N1987   1.157       .  T
C1986      N1988   1.157       .  T
C1991      C1992   1.409       .  A
C1991      C1996   1.412       .  A
C1992      C1993   1.405       .  A
C1992      C1997   1.453       .  S
C1993      C1994   1.418       .  A
C1993      C2000   1.454       .  S
C1994      C1995   1.416       .  A
C1995      C1996   1.418       .  A
C1995      C1998   1.449       .  S
C1996      C1999   1.450       .  S
C1997      N2004   1.157       .  T
C1998      N2003   1.157       .  T
C1999      N2001   1.157       .  T
C2000      N2002   1.157       .  T
C2005      C2006   1.403       .  A
C2005      C2010   1.411       .  A
C2006      C2007   1.399       .  A
C2006      C2011   1.455       .  S
C2007      C2008   1.422       .  A
C2007      C2014   1.454       .  S
C2008      C2009   1.414       .  A
C2009      C2010   1.415       .  A
C2009      C2012   1.449       .  S
C2010      C2013   1.450       .  S
C2011      N2018   1.157       .  T
C2012      N2017   1.157       .  T
C2013      N2015   1.157       .  T
C2014      N2016   1.157       .  T
C2019      C2020   1.423       .  A
C2019      C2024   1.422       .  A
C2020      C2021   1.400       .  A
C2020      C2025   1.455       .  S
C2021      C2022   1.406       .  A
C2021      C2028   1.455       .  S
C2022      C2023   1.409       .  A
C2023      C2024   1.416       .  A
C2023      C2026   1.450       .  S
C2024      C2027   1.449       .  S
C2025      N2032   1.158       .  T
C2026      N2031   1.157       .  T
C2027      N2029   1.157       .  T
C2028      N2030   1.157       .  T
C2033      C2034   1.420       .  A
C2033      C2038   1.421       .  A
C2034      C2035   1.414       .  A
C2034      C4379   1.452       .  S
C2035      C2036   1.414       .  A
C2035      C4382   1.452   1_455  S
C2036      C2037   1.413       .  A
C2037      C2038   1.416       .  A
C2037      C2040   1.450       .  S
C2038      C2041   1.452       .  S
C2039      C4374   1.452       .  S
C2039      N2046   1.158       .  T
C2040      N2045   1.157       .  T
C2041      N2043   1.157       .  T
C2042      C4375   1.452       .  S
C2042      N2044   1.157       .  T
C2047      C2048   1.431       .  A
C2047      C2052   1.425       .  A
C2048      C2049   1.410       .  A
C2048      C2053   1.453       .  S
C2049      C2050   1.404       .  A
C2049      C2056   1.455       .  S
C2050      C2051   1.408       .  A
C2051      C2052   1.417       .  A
C2051      C2054   1.451       .  S
C2052      C2055   1.450       .  S
C2053      N2060   1.158       .  T
C2054      N2059   1.157       .  T
C2055      N2057   1.158       .  T
C2056      N2058   1.157       .  T
C2061      C2062   1.412       .  A
C2061      C2066   1.416       .  A
C2062      C2063   1.412       .  A
C2062      C2067   1.451       .  S
C2063      C2064   1.413       .  A
C2063      C2070   1.451       .  S
C2064      C2065   1.411       .  A
C2065      C2066   1.412       .  A
C2065      C2068   1.451       .  S
C2066      C2069   1.452       .  S
C2067      N2074   1.157       .  T
C2068      N2073   1.157       .  T
C2069      N2071   1.157       .  T
C2070      N2072   1.157       .  T
C2075      C2076   1.403       .  A
C2075      C2080   1.416       .  A
C2076      C2077   1.418       .  A
C2076      C2081   1.452       .  S
C2077      C2078   1.435       .  A
C2077      C2084   1.451       .  S
C2078      C2079   1.416       .  A
C2079      C2080   1.419       .  A
C2079      C2082   1.449       .  S
C2080      C2083   1.451       .  S
C2081      N2088   1.157       .  T
C2082      N2087   1.157       .  T
C2083      N2085   1.157       .  T
C2084      N2086   1.157       .  T
C2089      C2090   1.411       .  A
C2089      C2094   1.415       .  A
C2090      C2091   1.412       .  A
C2090      C2095   1.451       .  S
C2091      C2092   1.417       .  A
C2091      C2098   1.452       .  S
C2092      C2093   1.414       .  A
C2093      C2094   1.412       .  A
C2093      C2096   1.452       .  S
C2094      C2097   1.452       .  S
C2095      N2102   1.157       .  T
C2096      N2101   1.157       .  T
C2097      N2099   1.157       .  T
C2098      N2100   1.157       .  T
C2103      C2104   1.414       .  A
C2103      C2108   1.411       .  A
C2104      C2105   1.413       .  A
C2104      C2109   1.451       .  S
C2105      C2106   1.412       .  A
C2105      C2112   1.450       .  S
C2106      C3645   1.483   1_455  S
C2106      C2107   1.415       .  A
C2107      C2108   1.406       .  A
C2107      C2110   1.452       .  S
C2108      C2111   1.453       .  S
C2109      N2116   1.158       .  T
C2110      N4455   1.157   1_455  T
C2111      N2113   1.157       .  T
C2112      N2114   1.157       .  T
N2115      C4450   1.157       .  T
C2117      C2118   1.411       .  A
C2117      C2122   1.418       .  A
C2118      C2119   1.414       .  A
C2118      C2123   1.451       .  S
C2119      C2120   1.422       .  A
C2119      C2126   1.452       .  S
C2120      C2121   1.416       .  A
C2121      C2122   1.415       .  A
C2121      C2124   1.451       .  S
C2122      C2125   1.453       .  S
C2123      N2130   1.157       .  T
C2124      N2129   1.157       .  T
C2125      N2127   1.158       .  T
C2126      N2128   1.157       .  T
C2131      C2132   1.420       .  A
C2131      C2136   1.418       .  A
C2132      C2133   1.411       .  A
C2132      C2137   1.452       .  S
C2133      C2134   1.412       .  A
C2133      C2140   1.453       .  S
C2134      C2135   1.414       .  A
C2135      C2136   1.416       .  A
C2135      C2138   1.451       .  S
C2136      C2139   1.451       .  S
C2137      N2144   1.157       .  T
C2140      N2142   1.157       .  T
C2145      C3575   1.504       .  S
C2145      C2146   1.421       .  A
C2145      C2150   1.429       .  A
C2146      C2147   1.405       .  A
C2146      C4491   1.453       .  S
C2147      C2148   1.411       .  A
C2147      C2154   1.455       .  S
C2148      C2149   1.403       .  A
C2149      C2150   1.413       .  A
C2149      C2152   1.451       .  S
C2150      C2153   1.451       .  S
C2151      C4486   1.453       .  S
C2151      N2158   1.157   1_655  T
C2152      N2157   1.157       .  T
C2153      N2155   1.158       .  T
C2154      N2156   1.157       .  T
C2159      C2160   1.407       .  A
C2159      C2164   1.411       .  A
C2160      C2161   1.408       .  A
C2160      C2165   1.454       .  S
C2161      C2162   1.424       .  A
C2161      C2168   1.454       .  S
C2162      C2163   1.418       .  A
C2163      C2164   1.418       .  A
C2163      C2166   1.450       .  S
C2164      C2167   1.449       .  S
C2165      N2172   1.157       .  T
C2166      N2171   1.157       .  T
C2167      N2169   1.157       .  T
C2168      N2170   1.158       .  T
C2173      C2178   1.422       .  A
C2174      C2175   1.417       .  A
C2174      C2179   1.452       .  S
C2175      C2176   1.410       .  A
C2175      C2182   1.451       .  S
C2177      C2178   1.417   1_545  A
C2177      C2180   1.453       .  S
C2178      C2181   1.451       .  S
C2179      N2186   1.157       .  T
C2180      N2185   1.157       .  T
C2181      N2183   1.158       .  T
C2182      N2184   1.157       .  T
C2187      C2188   1.412       .  A
C2187      C2192   1.411       .  A
C2188      C2189   1.417       .  A
C2188      C2193   1.451       .  S
C2189      C2190   1.422       .  A
C2189      C2196   1.451       .  S
C2190      C2191   1.424       .  A
C2191      C2192   1.411       .  A
C2191      C2194   1.452       .  S
C2192      C2195   1.454       .  S
C2193      N2200   1.157   1_455  T
C2194      N2199   1.157       .  T
C2195      N2197   1.157       .  T
C2196      N2198   1.158   1_455  T
C2201      C2202   1.405       .  A
C2201      C2206   1.409       .  A
C2202      C2203   1.412       .  A
C2202      C2207   1.451       .  S
C2203      C2204   1.424       .  A
C2203      C2210   1.452       .  S
C2204      C2205   1.420       .  A
C2205      C2206   1.412       .  A
C2205      C2208   1.451       .  S
C2206      C2209   1.451       .  S
C2208      N2213   1.158       .  T
C2209      N2211   1.157       .  T
C2210      N2212   1.158       .  T
C2215      C2216   1.415       .  A
C2215      C2220   1.422       .  A
C2216      C2217   1.417       .  A
C2216      C2221   1.450       .  S
C2217      C2218   1.416       .  A
C2217      C2224   1.451       .  S
C2218      C2219   1.411       .  A
C2219      C2220   1.406       .  A
C2219      C2222   1.455       .  S
C2220      C2223   1.454       .  S
C2221      N2228   1.157       .  T
C2222      N2227   1.157       .  T
C2223      N2225   1.157       .  T
C2224      N4566   1.157       .  T
N2226      C4564   1.157       .  T
C2229      C2230   1.419       .  A
C2229      C2234   1.412       .  A
C2230      C2231   1.415       .  A
C2230      C2235   1.452       .  S
C2231      C2232   1.410       .  A
C2231      C2238   1.451       .  S
C2232      C2233   1.417       .  A
C2233      C2234   1.419       .  A
C2233      C2236   1.451       .  S
C2234      C2237   1.449       .  S
C2235      N2242   1.157       .  T
C2236      N2241   1.157       .  T
C2237      N2239   1.157       .  T
C2238      N2240   1.157       .  T
C2243      C2244   1.409       .  A
C2243      C2248   1.416       .  A
C2244      C2245   1.409       .  A
C2244      C2249   1.451       .  S
C2245      C2246   1.415       .  A
C2245      C2252   1.452       .  S
C2246      C2247   1.408       .  A
C2247      C2248   1.414       .  A
C2247      C2250   1.449       .  S
C2248      C2251   1.450       .  S
C2249      N2256   1.157       .  T
C2250      N2255   1.157       .  T
C2252      N4594   1.157       .  T
N2254      C4592   1.157       .  T
C2257      C2258   1.414       .  A
C2257      C2262   1.413       .  A
C2258      C2259   1.411       .  A
C2258      C2263   1.451       .  S
C2259      C2260   1.412       .  A
C2259      C2266   1.451       .  S
C2260      C2261   1.414       .  A
C2261      C2262   1.410       .  A
C2261      C2264   1.453       .  S
C2262      C2265   1.451       .  S
C2263      N4610   1.157       .  T
C2264      N2269   1.158       .  T
C2265      N2267   1.157       .  T
C2266      N4608   1.157       .  T
N2268      C4606   1.157   1_455  T
N2270      C4603   1.157   1_455  T
C2271      C2272   1.419       .  A
C2271      C2276   1.413       .  A
C2272      C2273   1.404       .  A
C2272      C2277   1.455       .  S
C2273      C2274   1.412       .  A
C2273      C2280   1.455       .  S
C2274      C2275   1.415       .  A
C2275      C2276   1.414       .  A
C2275      C2278   1.450       .  S
C2276      C2279   1.450       .  S
C2277      N2284   1.158       .  T
C2278      N4623   1.157       .  T
C2279      N2281   1.157       .  T
C2280      N2282   1.158       .  T
N2283      C4618   1.157       .  T
C2285      C2286   1.416       .  A
C2285      C2290   1.409       .  A
C2286      C2287   1.404       .  A
C2286      C2291   1.452       .  S
C2287      C2288   1.412       .  A
C2287      C2294   1.454       .  S
C2288      C2289   1.417       .  A
C2289      C2290   1.412       .  A
C2289      C2292   1.451       .  S
C2290      C2293   1.451       .  S
C2291      N2298   1.157       .  T
C2293      N2295   1.157       .  T
C2294      N2296   1.158   1_565  T
C2299      C2300   1.412       .  A
C2299      C2304   1.418       .  A
C2300      C2301   1.410       .  A
C2300      C2305   1.450       .  S
C2301      C2302   1.412       .  A
C2301      C2308   1.452       .  S
C2302      C2303   1.405       .  A
C2303      C2304   1.409       .  A
C2304      C2307   1.451       .  S
C2305      N2312   1.157       .  T
C2306      N2311   1.157       .  T
C2307      N2309   1.157       .  T
C2308      N2310   1.157       .  T
C2313      C2314   1.416       .  A
C2313      C2318   1.408       .  A
C2314      C2315   1.403       .  A
C2314      C4659   1.454       .  S
C2315      C2316   1.406       .  A
C2315      C2322   1.451       .  S
C2316      C2317   1.414       .  A
C2317      C2318   1.412       .  A
C2317      C2320   1.450       .  S
C2318      C2321   1.449       .  S
C2319      C4654   1.454       .  S
C2319      N2326   1.157       .  T
C2320      N2325   1.157       .  T
C2321      N2323   1.157       .  T
C2322      N2324   1.157       .  T
C2327      C2328   1.410       .  A
C2327      C4672   1.423       .  A
C2328      C2329   1.417       .  A
C2328      C2333   1.453       .  S
C2329      C4670   1.431       .  A
C2329      C2336   1.453       .  S
C2330      C4669   1.431   1_455  A
C2330      C2331   1.415       .  A
C2331      C2332   1.419       .  A
C2331      C2334   1.451       .  S
C2332      C4667   1.423   1_455  A
C2332      C2335   1.450       .  S
C2333      N2340   1.158       .  T
C2334      N2339   1.157       .  T
C2335      N2337   1.157       .  T
C2336      N2338   1.157       .  T
Zn2341     O2345   1.908       .  S
Zn2341     O2346   1.970       .  S
Zn2341     O2350   1.998       .  S
Zn2341     O2357   2.013       .  S
Zn2342     O2345   1.947       .  S
Zn2342     O2347   2.003       .  S
Zn2342     O2353   2.041       .  S
Zn2343     O2345   1.942       .  S
Zn2343     O2348   2.002       .  S
Zn2343     O2351   2.070       .  S
Zn2343     O2354   2.045       .  S
Zn2344     O2345   1.892       .  S
Zn2344     O2352   1.984       .  S
Zn2344     O2355   1.964       .  S
Zn2344     O2356   2.013       .  S
O2347      C2359   1.271       .  A
O2348      C2360   1.273       .  A
O2349      C2358   1.278       .  A
O2350      C2360   1.273       .  A
O2351      C2359   1.282       .  A
O2352      C2361   1.272       .  A
O2353      C2362   1.278       .  A
O2354      C2361   1.279       .  A
O2355      C2362   1.271       .  A
O2356      C2363   1.272       .  A
O2357      C2363   1.272       .  A
C2358      C3483   1.475       .  S
C2359      C3497   1.506       .  S
C2360      C4628   1.482   1_545  S
C2361      C3469   1.485       .  S
C2362      C3444   1.483       .  S
C2363      C3427   1.483       .  S
Zn2364     O2368   1.907       .  S
Zn2364     O2369   1.984       .  S
Zn2364     O2373   2.017       .  S
Zn2364     O2380   2.007       .  S
Zn2365     O2368   1.951       .  S
Zn2365     O2372   2.043       .  S
Zn2365     O2376   1.981       .  S
Zn2366     O2368   1.917       .  S
Zn2366     O2371   2.029       .  S
Zn2366     O2374   1.989       .  S
Zn2366     O2377   2.000       .  S
Zn2367     O2368   1.956       .  S
Zn2367     O2375   2.041       .  S
Zn2367     O2378   2.101       .  S
Zn2367     O2379   2.081       .  S
O2369      C2381   1.272       .  A
O2370      C2382   1.279       .  A
O2371      C2383   1.274       .  A
O2372      C2381   1.278       .  A
O2373      C2383   1.274       .  A
O2375      C2384   1.278       .  A
O2376      C2385   1.269       .  A
O2377      C2384   1.274       .  A
O2378      C2385   1.286       .  A
O2379      C2386   1.283       .  A
O2380      C2386   1.273       .  A
C2381      C3388   1.485       .  S
C2382      C3416   1.483       .  S
C2383      C3357   1.489       .  S
C2384      C3374   1.502       .  S
C2385      C3500   1.515       .  S
C2386      C3402   1.493       .  S
Zn2387     O2391   1.949       .  S
Zn2387     O2392   2.076       .  S
Zn2387     O2396   2.071       .  S
Zn2387     O2403   1.988       .  S
Zn2388     O2391   1.914       .  S
Zn2388     O2393   1.995       .  S
Zn2388     O2395   1.954       .  S
Zn2388     O2399   1.994       .  S
Zn2389     O2391   1.895       .  S
Zn2389     O2394   1.988       .  S
Zn2389     O2397   2.006       .  S
Zn2389     O3570   1.964       .  S
Zn2390     O2391   1.958       .  S
Zn2390     O3568   2.073       .  S
Zn2390     O2401   2.054       .  S
Zn2390     O2402   2.066       .  S
O2392      C2404   1.283       .  A
O2393      C2405   1.269       .  A
O2394      C2406   1.269       .  A
O2395      C2404   1.268       .  A
O2396      C2406   1.281       .  A
O2397      C2405   1.273       .  A
O2398     Zn3560   2.073   1_545  S
O2398      C2407   1.281       .  A
O2399      C2408   1.272       .  A
O2400     Zn3559   1.965       .  S
O2400      C2407   1.269   1_565  A
O2401      C2408   1.278       .  A
O2402      C2409   1.281       .  A
O2403      C2409   1.271       .  A
C2404      C3385   1.498       .  S
C2406      C3343   1.514       .  S
C2407      C3371   1.477       .  S
C2408      C3301   1.497       .  S
C2409      C3329   1.481       .  S
Zn2410     O2414   1.912       .  S
Zn2410     O2415   1.977       .  S
Zn2410     O2419   1.989       .  S
Zn2410     O2426   1.975       .  S
Zn2411     O2414   1.971       .  S
Zn2411     O2416   2.066       .  S
Zn2411     O2418   2.039       .  S
Zn2411     O2422   2.088       .  S
Zn2412     O2414   1.923       .  S
Zn2412     O2417   2.037       .  S
Zn2412     O2420   1.996       .  S
Zn2412     O2423   1.997       .  S
Zn2413     O2414   1.949       .  S
Zn2413     O2421   2.027       .  S
Zn2413     O2424   1.977       .  S
Zn2413     O3595   2.033   1_545  S
O2415      C2427   1.268       .  A
O2416      C2428   1.282       .  A
O2417      C2429   1.275       .  A
O2418      C2427   1.275       .  A
O2419      C2429   1.269       .  A
O2420      C2428   1.274       .  A
O2421      C2430   1.274       .  A
O2422      C2431   1.284       .  A
O2423      C2430   1.272       .  A
O2424      C2431   1.269       .  A
O2425     Zn3583   2.029       .  S
O2425      C2432   1.275       .  A
O2426      C3602   1.271   1_545  A
C2427      C3486   1.473       .  S
C2428      C3290   1.502       .  S
C2429      C3259   1.486       .  S
C2430      C3472   1.474       .  S
C2431      C3346   1.500       .  S
C2432      O3596   1.271       .  A
C2432      C3273   1.479       .  S
Zn2433     O2437   1.890       .  S
Zn2433     O2438   2.049       .  S
Zn2433     O2442   1.979       .  S
Zn2433     O2449   2.011       .  S
Zn2434     O2437   1.898       .  S
Zn2434     O2439   1.989       .  S
Zn2434     O2441   1.991       .  S
Zn2434     O2445   1.954       .  S
Zn2435     O2437   1.954       .  S
Zn2435     O2440   2.083       .  S
Zn2435     O2443   2.053       .  S
Zn2435     O2446   2.118       .  S
Zn2436     O2437   1.934       .  S
Zn2436     O2444   1.982       .  S
Zn2436     O2447   2.049       .  S
Zn2436     O2448   2.078       .  S
O2438      C2450   1.277       .  A
O2439      C2451   1.270       .  A
O2440      C2452   1.288       .  A
O2441      C2450   1.269       .  A
O2442      C2452   1.275       .  A
O2443      C2451   1.277       .  A
O2444      C2453   1.268       .  A
O2445      C2454   1.271       .  A
O2446      C2453   1.288       .  A
O2447      C2454   1.282       .  A
O2448      C2455   1.281       .  A
O2449      C2455   1.274       .  A
C2450      C3231   1.486       .  S
C2451      C4583   1.483       .  S
C2452      C3332   1.496       .  S
C2453      C3248   1.518       .  S
C2454      C3318   1.472       .  S
C2455      C3399   1.498       .  S
Zn2456     O2460   1.912       .  S
Zn2456     O2461   2.010       .  S
Zn2456     O2465   2.040       .  S
Zn2456     O2472   1.964       .  S
Zn2457     O2460   1.939       .  S
Zn2457     O2462   2.054       .  S
Zn2457     O2464   2.058       .  S
Zn2457     O2468   1.979       .  S
Zn2458     O2460   1.904       .  S
Zn2458     O2463   1.986       .  S
Zn2458     O2466   1.950       .  S
Zn2458     O2469   1.980       .  S
Zn2459     O2460   1.961       .  S
Zn2459     O2467   2.064       .  S
Zn2459     O2470   2.074       .  S
Zn2459     O2471   2.055       .  S
O2461      C2473   1.271       .  A
O2462      C2474   1.281       .  A
O2463      C2475   1.269       .  A
O2464      C2473   1.277       .  A
O2465      C2475   1.277       .  A
O2466      C2474   1.268       .  A
O2467      C2476   1.278       .  A
O2468      C2477   1.271       .  A
O2469      C2476   1.268       .  A
O2470      C2477   1.283       .  A
O2471      C2478   1.281       .  A
O2472      C2478   1.271       .  A
C2473      C3245   1.495       .  S
C2474      C3441   1.482       .  S
C2476      C3217   1.515       .  S
C2477      C3287   1.494       .  S
C2478      C3455   1.478       .  S
Zn2479     O2483   1.913       .  S
Zn2479     O2484   1.987       .  S
Zn2479     O2488   1.975       .  S
Zn2479     O2495   1.982       .  S
Zn2480     O2485   1.955       .  S
Zn2480     O2487   2.016       .  S
Zn2480     O2491   1.984       .  S
Zn2481     O2483   1.960       .  S
Zn2481     O2486   2.034       .  S
Zn2481     O2492   1.995       .  S
Zn2482     O2483   1.958       .  S
Zn2482     O2490   2.066       .  S
Zn2482     O2494   2.019       .  S
O2485      C2497   1.268       .  A
O2486      C2498   1.276       .  A
O2487      C2496   1.271   1_655  A
O2488      C2498   1.271       .  A
O2489      C2497   1.277       .  A
O2490      C2499   1.281       .  A
O2491      C2500   1.271       .  A
O2492      C2499   1.272       .  A
O2493      C2500   1.278       .  A
O2494      C2501   1.274       .  A
O2495      C2501   1.269       .  A
C2497      C3189   1.499       .  S
C2498      C3150   1.475       .  S
C2499      C3206   1.497       .  S
C2500      C3161   1.480       .  S
C2501      C3175   1.467       .  S
Zn2502     O2506   1.907       .  S
Zn2502     O2507   1.974       .  S
Zn2502     O2511   1.998       .  S
Zn2502     O2518   2.022       .  S
Zn2503     O2506   1.965       .  S
Zn2503     O2510   2.062       .  S
Zn2503     O2514   2.049       .  S
Zn2504     O2506   1.941       .  S
Zn2504     O2509   2.053       .  S
Zn2504     O2512   1.968       .  S
Zn2504     O2515   2.072       .  S
Zn2505     O2506   1.914       .  S
Zn2505     O2513   1.980       .  S
Zn2505     O2516   2.004       .  S
Zn2505     O2517   1.987       .  S
O2507      C2519   1.271       .  A
O2508      C2520   1.281       .  A
O2509      C2521   1.278       .  A
O2510      C2519   1.280       .  A
O2511      C2521   1.271       .  A
O2513      C2522   1.271       .  A
O2514      C2523   1.277       .  A
O2515      C2522   1.282       .  A
O2516      C2523   1.272       .  A
O2517      C2524   1.270       .  A
O2518      C2524   1.275       .  A
C2519      C3091   1.476       .  S
C2520      C3108   1.488       .  S
C2521      C3203   1.504       .  S
C2522      C3080   1.507       .  S
C2523      C3360   1.506       .  S
C2524      C3122   1.473       .  S
Zn2525     O2529   1.904       .  S
Zn2525     O2530   1.981       .  S
Zn2525     O2534   1.994       .  S
Zn2525     O2541   1.957       .  S
Zn2526     O2529   1.970       .  S
Zn2526     O2531   2.056       .  S
Zn2526     O2533   2.038       .  S
Zn2526     O2537   2.083       .  S
Zn2527     O2529   1.917       .  S
Zn2527     O2532   2.043       .  S
Zn2527     O2535   1.976       .  S
Zn2527     O2538   2.000       .  S
Zn2528     O2529   1.949       .  S
Zn2528     O2536   2.050       .  S
Zn2528     O2539   1.988       .  S
Zn2528     O2540   2.042       .  S
O2530      C2542   1.269       .  A
O2531      C2543   1.281       .  A
O2532      C2544   1.275       .  A
O2533      C2542   1.276       .  A
O2534      C2544   1.269       .  A
O2535      C2543   1.273       .  A
O2536      C2545   1.278       .  A
O2537      C2546   1.282       .  A
O2538      C2545   1.272       .  A
O2539      C2546   1.270       .  A
O2540      C2547   1.279       .  A
O2541      C2547   1.269       .  A
C2542      C3049   1.476       .  S
C2543      C4275   1.480       .  S
C2544      C3234   1.484       .  S
C2545      C3035   1.481       .  S
C2546      C3066   1.504       .  S
C2547      C3119   1.481       .  S
Zn2548     O2552   1.896       .  S
Zn2548     O2553   2.019       .  S
Zn2548     O2557   2.021       .  S
Zn2548     O2564   1.973       .  S
Zn2549     O2552   1.911       .  S
Zn2549     O2554   2.057       .  S
Zn2549     O2556   2.047       .  S
Zn2549     O2560   1.987       .  S
Zn2550     O2552   1.906       .  S
Zn2550     O2555   1.990       .  S
Zn2550     O2558   2.009       .  S
Zn2550     O2561   2.010       .  S
Zn2551     O2552   1.942       .  S
Zn2551     O2559   2.037       .  S
Zn2551     O2562   2.064       .  S
Zn2551     O2563   2.067       .  S
O2553      C2565   1.273       .  A
O2554      C2566   1.282       .  A
O2555      C2567   1.271       .  A
O2556      C2565   1.278       .  A
O2557      C2567   1.276       .  A
O2558      C2566   1.276       .  A
O2559      C2568   1.275       .  A
O2560      C2569   1.274       .  A
O2561      C2568   1.275       .  A
O2562      C2569   1.282       .  A
O2563      C2570   1.282       .  A
O2564      C2570   1.271       .  A
C2565      C3063   1.519       .  S
C2566      C3021   1.508       .  S
C2567      C3147   1.480       .  S
C2568      C2993   1.509       .  S
C2569      C3164   1.490       .  S
C2570      C3007   1.477       .  S
Zn2571     O3745   1.872       .  S
Zn2571     O2576   1.956       .  S
Zn2571     O2580   2.011       .  S
Zn2571     O2587   2.012       .  S
Zn2572     O2575   1.953       .  S
Zn2572     O2577   2.073   1_565  S
Zn2572     O3749   2.076       .  S
Zn2572     O2583   2.056       .  S
Zn2573     O2575   1.908   1_545  S
Zn2573     O2578   2.050   1_545  S
Zn2573     O2581   1.991       .  S
Zn2573     O2584   2.043       .  S
Zn2574     O2575   1.899       .  S
Zn2574     O2582   1.971   1_565  S
Zn2574     O2585   2.002       .  S
Zn2574     O3756   2.024       .  S
O2575     Zn3741   1.872       .  S
O2576      C2588   1.266       .  A
O2577      C2589   1.283       .  A
O2578      C3760   1.279       .  A
O2579     Zn3742   2.077       .  S
O2579      C2588   1.281       .  A
O2580      C2590   1.272       .  A
O2581      C2589   1.273       .  A
O2582      C2591   1.273       .  A
O2583      C2592   1.280       .  A
O2584      C2591   1.280       .  A
O2585      C2592   1.275       .  A
O2586     Zn3744   2.024       .  S
O2586      C2593   1.273       .  A
O2587      C2593   1.273       .  A
C2588      C3178   1.486       .  S
C2589      C3024   1.507       .  S
C2590      O3748   1.279       .  A
C2590      C2982   1.494       .  S
C2591      C3192   1.474       .  S
C2592      C2965   1.493   1_565  S
C2593      C3010   1.486       .  S
Zn2594     O2598   1.950       .  S
Zn2594     O2599   2.052       .  S
Zn2594     O2603   2.027       .  S
Zn2594     O2610   2.081       .  S
Zn2595     O2598   1.896       .  S
Zn2595     O2600   2.019       .  S
Zn2595     O2602   1.995       .  S
Zn2595     O2606   1.993       .  S
Zn2596     O2598   1.918       .  S
Zn2596     O2601   2.018       .  S
Zn2596     O2604   2.022       .  S
Zn2596     O2607   1.985       .  S
Zn2597     O2598   1.945       .  S
Zn2597     O2605   2.046       .  S
Zn2597     O3778   2.056       .  S
Zn2597     O2609   1.981       .  S
O2599      C2611   1.281       .  A
O2600      C2612   1.274       .  A
O2601      C2613   1.275       .  A
O2602      C2611   1.274       .  A
O2603      C2613   1.274       .  A
O2604      C2612   1.274       .  A
O2605      C2614   1.279       .  A
O2606      C3785   1.273       .  A
O2607      C2614   1.273       .  A
O2608     Zn3767   2.056   1_545  S
O2608      C2615   1.278       .  A
O2609      C2616   1.269       .  A
O2610      C2616   1.283       .  A
C2612      C3304   1.491       .  S
C2613      C3094   1.507       .  S
C2614      C3052   1.480       .  S
C2615      O3776   1.273   1_545  A
C2615      C3077   1.488       .  S
C2616      C2979   1.505       .  S
Zn2617     O2621   1.917       .  S
Zn2617     O2622   1.986       .  S
Zn2617     O2626   1.997       .  S
Zn2617     O2633   2.031       .  S
Zn2618     O2621   1.975       .  S
Zn2618     O2623   2.103       .  S
Zn2618     O2625   2.065       .  S
Zn2618     O2629   2.034       .  S
Zn2619     O2621   1.940       .  S
Zn2619     O2624   2.034       .  S
Zn2619     O2627   1.959       .  S
Zn2619     O2630   2.035       .  S
Zn2620     O2621   1.918       .  S
Zn2620     O2628   1.977       .  S
Zn2620     O2631   1.994       .  S
Zn2620     O2632   2.010       .  S
O2622      C2634   1.271       .  A
O2623      C2635   1.285       .  A
O2624      C2636   1.275       .  A
O2625      C2634   1.282       .  A
O2626      C2636   1.271       .  A
O2627      C2635   1.267       .  A
O2628      C2637   1.270       .  A
O2629      C2638   1.275       .  A
O2630      C2637   1.277       .  A
O2631      C2638   1.272       .  A
O2632      C2639   1.271       .  A
O2633      C2639   1.274       .  A
C2635      C2951   1.499       .  S
C2636      C2923   1.477       .  S
C2637      C2909   1.475       .  S
C2638      C2940   1.503       .  S
C2639      C3220   1.481       .  S
Zn2640     O2644   1.946       .  S
Zn2640     O2645   2.064       .  S
Zn2640     O2649   2.065       .  S
Zn2640     O2656   2.008       .  S
Zn2641     O2644   1.928       .  S
Zn2641     O2646   1.989       .  S
Zn2641     O2648   1.978       .  S
Zn2641     O2652   2.001       .  S
Zn2642     O2644   1.923       .  S
Zn2642     O2647   1.999       .  S
Zn2642     O2650   2.019       .  S
Zn2642     O2653   1.974       .  S
Zn2643     O2644   1.953       .  S
Zn2643     O2651   2.043       .  S
Zn2643     O2654   2.045       .  S
Zn2643     O2655   2.051       .  S
O2645      C2657   1.282       .  A
O2646      C2658   1.268       .  A
O2647      C2659   1.270       .  A
O2648      C2657   1.270       .  A
O2649      C2659   1.280       .  A
O2650      C2658   1.274       .  A
O2651      C2660   1.277       .  A
O2652      C2661   1.271       .  A
O2653      C2660   1.271       .  A
O2654      C2661   1.277       .  A
O2655      C2662   1.280       .  A
O2656      C2662   1.273       .  A
C2657      C2853   1.505       .  S
C2658      C2870   1.472       .  S
C2659      C2954   1.516       .  S
C2660      C2839   1.471       .  S
C2661      C2996   1.506       .  S
C2662      C2884   1.484       .  S
Zn2663     O2667   1.909       .  S
Zn2663     O2668   1.987       .  S
Zn2663     O2672   1.933       .  S
Zn2663     O2679   1.984       .  S
Zn2664     O2667   1.913       .  S
Zn2664     O2669   1.988       .  S
Zn2664     O2671   2.038       .  S
Zn2664     O2675   2.006       .  S
Zn2665     O2667   1.961       .  S
Zn2665     O2670   2.056       .  S
Zn2665     O3843   2.060   1_545  S
Zn2665     O2676   2.013       .  S
Zn2666     O2667   1.956       .  S
Zn2666     O2674   2.074       .  S
Zn2666     O2677   2.040       .  S
Zn2666     O2678   2.031       .  S
O2668      C2680   1.268       .  A
O2669      C3851   1.274   1_545  A
O2670      C2682   1.279       .  A
O2671      C2680   1.274       .  A
O2672      C2682   1.267       .  A
O2673     Zn3835   2.060       .  S
O2673      C2681   1.281       .  A
O2674      C2683   1.282       .  A
O2675      C2684   1.275       .  A
O2676      C2683   1.273       .  A
O2677      C2684   1.279       .  A
O2678      C2685   1.275       .  A
O2679      C2685   1.271       .  A
C2680      C3262   1.489       .  S
C2681      O3839   1.274       .  A
C2681      C2898   1.492       .  S
C2682      C2814   1.483       .  S
C2683      C2828   1.498       .  S
C2684      C2797   1.482       .  S
C2685      C2912   1.496       .  S
Zn2686     O2690   1.915       .  S
Zn2686     O2691   2.020       .  S
Zn2686     O3865   1.993   1_545  S
Zn2686     O3872   2.012       .  S
Zn2687     O2690   1.860       .  S
Zn2687     O2692   1.993       .  S
Zn2687     O2694   1.974       .  S
Zn2687     O2698   1.949       .  S
Zn2688     O3860   1.915       .  S
Zn2688     O2693   2.059       .  S
Zn2688     O2696   2.071       .  S
Zn2688     O2699   1.943       .  S
Zn2689     O2690   1.941       .  S
Zn2689     O3867   2.057   1_545  S
Zn2689     O2700   2.066       .  S
Zn2689     O3871   2.042       .  S
O2690     Zn3858   1.915   1_545  S
O2691      C2703   1.273       .  A
O2692      C2704   1.268       .  A
O2693      C2705   1.283       .  A
O2694      C2703   1.270       .  A
O2695     Zn3856   1.995       .  S
O2695      C2705   1.275       .  A
O2696      C3874   1.279       .  A
O2697     Zn3859   2.059       .  S
O2697      C2706   1.282       .  A
O2698      C2707   1.269       .  A
O2699      C2706   1.267       .  A
O2700      C2707   1.282       .  A
O2701     Zn3859   2.042       .  S
O2701      C2708   1.276       .  A
O2702     Zn3856   2.012       .  S
O2702      C2708   1.275       .  A
C2703      C2783   1.489       .  S
C2704      O3866   1.279       .  A
C2704      C2825   1.499       .  S
C2705      C2881   1.491       .  S
C2706      C2769   1.491       .  S
C2707      C2867   1.469       .  S
C2708      C4138   1.493       .  S
Zn2709     O2713   1.896       .  S
Zn2709     O2714   2.023       .  S
Zn2709     O2718   2.038       .  S
Zn2709     O2725   1.982       .  S
Zn2710     O2713   1.897       .  S
Zn2710     O2717   1.978       .  S
Zn2710     O2721   1.992       .  S
Zn2711     O2716   2.015       .  S
Zn2711     O2719   2.011       .  S
Zn2711     O2722   1.964       .  S
Zn2712     O2713   1.941       .  S
Zn2712     O2723   2.025       .  S
Zn2712     O2724   2.054       .  S
O2714      C2726   1.280       .  A
O2715      C2727   1.270       .  A
O2716      C2728   1.272       .  A
O2717      C2726   1.274       .  A
O2719      C2727   1.274       .  A
O2720      C2729   1.279       .  A
O2721      C2730   1.274       .  A
O2722      C2729   1.267       .  A
O2723      C2730   1.277       .  A
O2724      C2731   1.280       .  A
O2725      C2731   1.270       .  A
C2726      C2772   1.468       .  S
C2727      C2842   1.483       .  S
C2728      C2755   1.490       .  S
C2729      C2786   1.484       .  S
C2730      C3133   1.491       .  S
C2731      C2856   1.490       .  S
Zn2732     O2736   1.915       .  S
Zn2732     O2741   2.018       .  S
Zn2732     O2748   1.985       .  S
Zn2733     O2736   1.952       .  S
Zn2733     O2738   2.039       .  S
Zn2733     O2744   1.986       .  S
Zn2734     O2736   1.919       .  S
Zn2734     O2739   1.999       .  S
Zn2734     O2742   1.984       .  S
Zn2734     O2745   1.980       .  S
Zn2735     O2736   1.972       .  S
Zn2735     O2743   2.019       .  S
Zn2735     O2746   2.069       .  S
Zn2735     O2747   2.053       .  S
O2737      C2749   1.271       .  A
O2738      C2750   1.277       .  A
O2739      C2751   1.271       .  A
O2740      C2749   1.277       .  A
O2741      C2751   1.272       .  A
O2742      C2750   1.271       .  A
O2743      C2752   1.272       .  A
O2744      C2753   1.269       .  A
O2745      C2752   1.269       .  A
O2746      C2753   1.280       .  A
O2747      C2754   1.280       .  A
O2748      C2754   1.272       .  A
C2749      C2800   1.477       .  S
C2750      C2937   1.482       .  S
C2751      C3430   1.482       .  S
C2752      C2811   1.468       .  S
C2753      C2758   1.484       .  S
C2754      C4096   1.488   1_545  S
C2755      C2760   1.413       .  A
C2756      C2761   1.451       .  S
C2757      C2758   1.410       .  A
C2758      C2759   1.413       .  A
C2759      C2760   1.414       .  A
C2759      C2762   1.449       .  S
C2760      C2763   1.451       .  S
C2761      N2768   1.157       .  T
C2762      N2767   1.157       .  T
C2763      N2765   1.157       .  T
C2764      N2766   1.157       .  T
C2769      C2770   1.427       .  A
C2769      C2774   1.416       .  A
C2770      C2771   1.404       .  A
C2770      C2775   1.455       .  S
C2771      C2772   1.404       .  A
C2771      C2778   1.455       .  S
C2772      C2773   1.410       .  A
C2773      C2774   1.411       .  A
C2773      C2776   1.452       .  S
C2774      C2777   1.450       .  S
C2775      N2782   1.157       .  T
C2776      N2781   1.157       .  T
C2777      N2779   1.157       .  T
C2778      N2780   1.158       .  T
C2783      C2784   1.417       .  A
C2783      C2788   1.420       .  A
C2784      C2785   1.400       .  A
C2784      C2789   1.457       .  S
C2785      C2786   1.417       .  A
C2785      C2792   1.456       .  S
C2786      C2787   1.411       .  A
C2787      C2788   1.415       .  A
C2787      C2790   1.450       .  S
C2788      C2791   1.451       .  S
C2789      N2796   1.158       .  T
C2790      N2795   1.157       .  T
C2791      N2793   1.158       .  T
C2792      N2794   1.157       .  T
C2797      C2798   1.410       .  A
C2797      C2802   1.416       .  A
C2798      C2799   1.409       .  A
C2798      C2803   1.451       .  S
C2799      C2800   1.413       .  A
C2799      C2806   1.452       .  S
C2800      C2801   1.408       .  A
C2801      C2802   1.412       .  A
C2801      C2804   1.450       .  S
C2802      C2805   1.451       .  S
C2803      N2810   1.157       .  T
C2804      N2809   1.157       .  T
C2805      N2807   1.157       .  T
C2806      N2808   1.157       .  T
C2811      C2812   1.404       .  A
C2811      C2816   1.412       .  A
C2812      C2813   1.399       .  A
C2812      C2817   1.454       .  S
C2813      C2814   1.422       .  A
C2813      C2820   1.455       .  S
C2814      C2815   1.413       .  A
C2815      C2816   1.415       .  A
C2815      C3988   1.449       .  S
C2816      C2819   1.449       .  S
C2817      N2824   1.157       .  T
C2818      C3985   1.449       .  S
C2818      N2823   1.157       .  T
C2819      N3991   1.157       .  T
C2820      N2822   1.157       .  T
N2821      C3989   1.157       .  T
C2825      C2826   1.416       .  A
C2825      C2830   1.416       .  A
C2826      C2827   1.416       .  A
C2826      C2831   1.451       .  S
C2827      C2828   1.415       .  A
C2827      C2834   1.449       .  S
C2828      C2829   1.415       .  A
C2829      C2830   1.417       .  A
C2829      C2832   1.449       .  S
C2830      C4003   1.451   1_545  S
C2831      N2838   1.157       .  T
C2832      N4007   1.157   1_545  T
C2833      C4000   1.451       .  S
C2833      N2835   1.158       .  T
C2834      N2836   1.157       .  T
N2837      C4002   1.157       .  T
C2839      C2840   1.408       .  A
C2839      C2844   1.411       .  A
C2840      C2841   1.411       .  A
C2840      C2845   1.452       .  S
C2841      C2842   1.417       .  A
C2841      C2848   1.451       .  S
C2842      C2843   1.411       .  A
C2843      C2844   1.407       .  A
C2843      C2846   1.451       .  S
C2844      C2847   1.451       .  S
C2845      N2852   1.157       .  T
C2846      N2851   1.157       .  T
C2847      N2849   1.157       .  T
C2848      N2850   1.158       .  T
C2853      C2854   1.418       .  A
C2853      C2858   1.427       .  A
C2854      C2855   1.414       .  A
C2854      C2859   1.451       .  S
C2855      C2856   1.415       .  A
C2855      C2862   1.452       .  S
C2856      C2857   1.411       .  A
C2857      C2858   1.412       .  A
C2857      C2860   1.454       .  S
C2858      C2861   1.453       .  S
C2859      N2866   1.157       .  T
C2860      N2865   1.158       .  T
C2861      N2863   1.158       .  T
C2862      N2864   1.157       .  T
C2867      C2868   1.412       .  A
C2867      C2872   1.410       .  A
C2868      C2869   1.410       .  A
C2868      C2873   1.451       .  S
C2869      C2870   1.410       .  A
C2869      C2876   1.451       .  S
C2870      C2871   1.411       .  A
C2871      C2872   1.406       .  A
C2871      C2874   1.452       .  S
C2872      C2875   1.452       .  S
C2873      N2880   1.157       .  T
C2874      N2879   1.157       .  T
C2875      N2877   1.157       .  T
C2876      N2878   1.157       .  T
C2881      C2882   1.413       .  A
C2881      C2886   1.419       .  A
C2882      C2883   1.415       .  A
C2882      C2887   1.450       .  S
C2883      C2884   1.413       .  A
C2883      C2890   1.449       .  S
C2884      C2885   1.410       .  A
C2885      C2886   1.410       .  A
C2885      C2888   1.453       .  S
C2886      C2889   1.453       .  S
C2887      N2894   1.157       .  T
C2888      N2893   1.157       .  T
C2889      N2891   1.157       .  T
C2890      N2892   1.157       .  T
C2895      C2896   1.425       .  A
C2895      C2900   1.430       .  A
C2896      C2897   1.418       .  A
C2896      C2901   1.450       .  S
C2897      C2898   1.410       .  A
C2897      C2904   1.449       .  S
C2898      C2899   1.409       .  A
C2899      C2900   1.410       .  A
C2899      C2902   1.455       .  S
C2900      C2903   1.453       .  S
C2901      N2908   1.157       .  T
C2902      N4077   1.158       .  T
C2904      N2906   1.157       .  T
N2907      C4072   1.158       .  T
C2909      C2910   1.407       .  A
C2909      C2914   1.410       .  A
C2910      C2911   1.408       .  A
C2910      C2915   1.452       .  S
C2911      C2912   1.422       .  A
C2911      C2918   1.453       .  S
C2912      C2913   1.420       .  A
C2913      C2914   1.412       .  A
C2913      C2916   1.451       .  S
C2914      C2917   1.452       .  S
C2915      N2922   1.157       .  T
C2916      N2921   1.158       .  T
C2917      N2919   1.157       .  T
C2918      N2920   1.158       .  T
C2923      C2924   1.406       .  A
C2923      C2928   1.414       .  A
C2924      C2925   1.409       .  A
C2924      C2929   1.451       .  S
C2925      C2926   1.419       .  A
C2925      C2932   1.452       .  S
C2926      C3924   1.487       .  S
C2926      C2927   1.412       .  A
C2927      C2928   1.413       .  A
C2927      C4100   1.450       .  S
C2928      C2931   1.451       .  S
C2929      N2936   1.157       .  T
C2930      C4097   1.450       .  S
C2930      N2935   1.157   1_565  T
C2931      N2933   1.157       .  T
C2932      N2934   1.157       .  T
C2937      C2938   1.408       .  A
C2937      C2942   1.412       .  A
C2938      C2939   1.409       .  A
C2938      C2943   1.453       .  S
C2939      C2940   1.423       .  A
C2939      C2946   1.453       .  S
C2940      C2941   1.422       .  A
C2941      C2942   1.414       .  A
C2941      C2944   1.451       .  S
C2943      N2950   1.157       .  T
C2945      N2947   1.157       .  T
C2946      N2948   1.158       .  T
C2951      C2952   1.418       .  A
C2951      C2956   1.411       .  A
C2952      C2953   1.414       .  A
C2952      C2957   1.453       .  S
C2953      C2954   1.420       .  A
C2953      C2960   1.452       .  S
C2954      C2955   1.428       .  A
C2955      C2956   1.420       .  A
C2955      C2958   1.452       .  S
C2956      C2959   1.451       .  S
C2957      N2964   1.157       .  T
C2958      N2963   1.157       .  T
C2959      N2961   1.157       .  T
C2960      N2962   1.157       .  T
C2965      C4136   1.416   1_545  A
C2965      C2970   1.416       .  A
C2966      C4135   1.416       .  A
C2966      C2967   1.417   1_554  A
C2966      C2971   1.451       .  S
C2967      C4138   1.416       .  A
C2967      C2974   1.450       .  S
C2968      C3878   1.492       .  S
C2968      C4137   1.416   1_545  A
C2968      C2969   1.414       .  A
C2969      C2970   1.409   1_556  A
C2969      C2972   1.453       .  S
C2970      C2973   1.451       .  S
C2971      N2978   1.157       .  T
C2972      N2977   1.157       .  T
C2973      N2975   1.157       .  T
C2974      N2976   1.157       .  T
C2979      C2980   1.414       .  A
C2979      C2984   1.427       .  A
C2980      C2981   1.417       .  A
C2980      C2985   1.451       .  S
C2981      C2982   1.419       .  A
C2981      C2988   1.450       .  S
C2982      C2983   1.407       .  A
C2983      C2984   1.412       .  A
C2983      C2986   1.453       .  S
C2984      C2987   1.451       .  S
C2985      N2992   1.157       .  T
C2986      N4161   1.157       .  T
C2987      N2989   1.157       .  T
C2988      N2990   1.157       .  T
N2991      C4156   1.157       .  T
C2993      C2994   1.419       .  A
C2993      C2998   1.423       .  A
C2994      C2995   1.413   1_554  A
C2994      C2999   1.455       .  S
C2995      C2996   1.422       .  A
C2995      C3002   1.452       .  S
C2996      C2997   1.416       .  A
C2997      C2998   1.417   1_556  A
C2997      C3000   1.453       .  S
C2998      C3001   1.451       .  S
C2999      N3006   1.157       .  T
C3000      N3005   1.156       .  T
C3001      N3003   1.159       .  T
C3002      N3004   1.159       .  T
C3007      C3008   1.412       .  A
C3007      C3012   1.411       .  A
C3008      C3009   1.411       .  A
C3008      C3013   1.452       .  S
C3009      C3010   1.415       .  A
C3009      C3016   1.452       .  S
C3010      C3011   1.413       .  A
C3011      C3012   1.412       .  A
C3011      C3014   1.451       .  S
C3012      C3015   1.451       .  S
C3013      N3020   1.157       .  T
C3014      N3019   1.157       .  T
C3015      N3017   1.157       .  T
C3016      N3018   1.157       .  T
C3021      C3022   1.417       .  A
C3021      C3026   1.422       .  A
C3022      C3023   1.415       .  A
C3022      C3027   1.452       .  S
C3023      C3024   1.422       .  A
C3023      C3030   1.453       .  S
C3024      C3025   1.416       .  A
C3025      C3026   1.416       .  A
C3025      C3028   1.451       .  S
C3026      C3029   1.453       .  S
C3027      N3034   1.158       .  T
C3028      N3033   1.157       .  T
C3029      N3031   1.158       .  T
C3030      N3032   1.158       .  T
C3035      C3036   1.407       .  A
C3035      C3040   1.414       .  A
C3036      C3037   1.412       .  A
C3036      C3041   1.450       .  S
C3037      C3038   1.418       .  A
C3038      C3039   1.411       .  A
C3039      C3040   1.413       .  A
C3039      C3042   1.450   1_655  S
C3040      C3043   1.451       .  S
C3041      N3048   1.157       .  T
C3042      N3047   1.157       .  T
C3043      N3045   1.157       .  T
C3044      N3046   1.157       .  T
C3049      C3050   1.414       .  A
C3049      C3054   1.409       .  A
C3050      C3051   1.413       .  A
C3050      C3055   1.451       .  S
C3051      C3052   1.409       .  A
C3051      C4228   1.449       .  S
C3052      C3053   1.416       .  A
C3053      C3054   1.406       .  A
C3053      C3056   1.454       .  S
C3054      C3057   1.452       .  S
C3055      N4232   1.157       .  T
C3056      N3061   1.157       .  T
C3057      N3059   1.157       .  T
C3058      C4221   1.449       .  S
C3058      N3060   1.157   1_565  T
N3062      C4225   1.157       .  T
C3063      C3064   1.427       .  A
C3063      C3068   1.425       .  A
C3064      C3065   1.419       .  A
C3064      C3069   1.452       .  S
C3065      C3066   1.412       .  A
C3065      C3072   1.450       .  S
C3066      C3067   1.417       .  A
C3067      C3068   1.416       .  A
C3067      C3070   1.454       .  S
C3068      C3071   1.453       .  S
C3069      N3076   1.158       .  T
C3070      N3075   1.158       .  T
C3071      N3073   1.158       .  T
C3072      N3074   1.157       .  T
C3077      C3078   1.408       .  A
C3077      C3082   1.413       .  A
C3078      C3079   1.408       .  A
C3078      C3083   1.455       .  S
C3079      C3080   1.427       .  A
C3079      C3086   1.453       .  S
C3080      C3081   1.420       .  A
C3081      C3082   1.420       .  A
C3081      C3084   1.450       .  S
C3082      C3085   1.450       .  S
C3083      N3090   1.157       .  T
C3084      N3089   1.157       .  T
C3085      N3087   1.157       .  T
C3086      N3088   1.158       .  T
C3091      C3092   1.405       .  A
C3091      C3096   1.408       .  A
C3092      C3093   1.413       .  A
C3092      C3097   1.451       .  S
C3093      C3094   1.424       .  A
C3093      C3100   1.451       .  S
C3094      C3095   1.423       .  A
C3095      C3096   1.412       .  A
C3095      C3098   1.451       .  S
C3097      N3104   1.157       .  T
C3099      N3101   1.157       .  T
C3100      N3102   1.158       .  T
C3105      C3713   1.480   1_545  S
C3105      C3106   1.410       .  A
C3105      C3110   1.413       .  A
C3106      C3107   1.403       .  A
C3106      C4281   1.455   1_545  S
C3107      C3108   1.418       .  A
C3108      C3109   1.414       .  A
C3109      C3110   1.418       .  A
C3109      C3112   1.449       .  S
C3110      C3113   1.450       .  S
C3111      C4276   1.455       .  S
C3111      N3118   1.157       .  T
C3112      N3117   1.157       .  T
C3113      N3115   1.157       .  T
C3114      N3116   1.157       .  T
C3119      C3120   1.416       .  A
C3119      C3124   1.416       .  A
C3120      C3121   1.412       .  A
C3120      C3125   1.451       .  S
C3121      C3122   1.410       .  A
C3121      C3128   1.451       .  S
C3122      C3123   1.409       .  A
C3123      C3124   1.405       .  A
C3123      C3126   1.453       .  S
C3124      C3127   1.453       .  S
C3125      N3132   1.157       .  T
C3126      N3131   1.157       .  T
C3127      N3129   1.157       .  T
C3128      N3130   1.157       .  T
C3133      C3134   1.420       .  A
C3134      C3135   1.412   1_556  A
C3134      C3139   1.451       .  S
C3135      C3136   1.410       .  A
C3135      C3142   1.452       .  S
C3137      C3138   1.406   1_554  A
C3137      C3140   1.454       .  S
C3138      C3141   1.453       .  S
C3139      N3146   1.157       .  T
C3140      N3145   1.157       .  T
C3141      N3143   1.157       .  T
C3142      N3144   1.157       .  T
C3147      C3148   1.416       .  A
C3147      C3152   1.411       .  A
C3148      C3149   1.407       .  A
C3148      C3153   1.453       .  S
C3149      C3150   1.410       .  A
C3149      C3156   1.452       .  S
C3150      C3151   1.413       .  A
C3151      C3152   1.410       .  A
C3151      C3154   1.450       .  S
C3152      C3155   1.451       .  S
C3153      N3160   1.158       .  T
C3154      N3159   1.157       .  T
C3155      N3157   1.157       .  T
C3156      N3158   1.157       .  T
C3161      C3162   1.409       .  A
C3161      C3166   1.412       .  A
C3162      C3163   1.405       .  A
C3162      C3167   1.453       .  S
C3163      C3164   1.418       .  A
C3163      C3170   1.454       .  S
C3164      C3165   1.415       .  A
C3165      C3166   1.418       .  A
C3165      C3168   1.449       .  S
C3166      C3169   1.450       .  S
C3167      N3174   1.157       .  T
C3168      N3173   1.157       .  T
C3169      N3171   1.157       .  T
C3170      N3172   1.157       .  T
C3175      C3176   1.403       .  A
C3175      C3180   1.411       .  A
C3176      C3177   1.399       .  A
C3176      C3181   1.455       .  S
C3177      C3178   1.422       .  A
C3177      C3184   1.454       .  S
C3178      C3179   1.414       .  A
C3179      C3180   1.415       .  A
C3179      C3182   1.449       .  S
C3180      C3183   1.450       .  S
C3181      N3188   1.157       .  T
C3182      N3187   1.157       .  T
C3183      N3185   1.157       .  T
C3184      N3186   1.157       .  T
C3189      C3190   1.423       .  A
C3189      C3194   1.422       .  A
C3190      C3191   1.400       .  A
C3190      C3195   1.455       .  S
C3191      C3192   1.406       .  A
C3191      C3198   1.455       .  S
C3192      C3193   1.409       .  A
C3193      C3194   1.416       .  A
C3193      C3196   1.450       .  S
C3194      C3197   1.449       .  S
C3195      N3202   1.158       .  T
C3196      N3201   1.157       .  T
C3197      N3199   1.157       .  T
C3198      N3200   1.157       .  T
C3203      C3204   1.420       .  A
C3203      C3208   1.421       .  A
C3204      C3205   1.415       .  A
C3205      C3206   1.414       .  A
C3206      C3207   1.413       .  A
C3207      C3208   1.416       .  A
C3207      C3210   1.450       .  S
C3208      C3211   1.452       .  S
C3209      N3216   1.158   1_455  T
C3210      N3215   1.157       .  T
C3211      N3213   1.157       .  T
C3212      N3214   1.157       .  T
C3217      C3218   1.432       .  A
C3217      C3222   1.426       .  A
C3218      C3219   1.410       .  A
C3218      C3223   1.453       .  S
C3219      C3220   1.404       .  A
C3219      C3226   1.455       .  S
C3220      C3221   1.407       .  A
C3221      C3222   1.417       .  A
C3221      C3224   1.451       .  S
C3222      C3225   1.450       .  S
C3223      N3230   1.158       .  T
C3224      N3229   1.157       .  T
C3225      N3227   1.158       .  T
C3226      N3228   1.157       .  T
C3231      C3232   1.412       .  A
C3231      C3236   1.416       .  A
C3232      C3233   1.412       .  A
C3232      C3237   1.451       .  S
C3233      C3234   1.413       .  A
C3233      C3240   1.451       .  S
C3234      C3235   1.412       .  A
C3235      C3236   1.412       .  A
C3235      C3238   1.451       .  S
C3236      C3239   1.452       .  S
C3237      N3244   1.157       .  T
C3238      N3243   1.157       .  T
C3239      N3241   1.157       .  T
C3240      N3242   1.157       .  T
C3245      C3246   1.403       .  A
C3245      C3250   1.416       .  A
C3246      C3247   1.418       .  A
C3246      C3251   1.452       .  S
C3247      C3248   1.435       .  A
C3247      C3254   1.451       .  S
C3248      C3249   1.416       .  A
C3249      C3250   1.418       .  A
C3249      C3252   1.449       .  S
C3250      C3253   1.451       .  S
C3251      N3258   1.157       .  T
C3252      N3257   1.157       .  T
C3253      N3255   1.157       .  T
C3254      N3256   1.157       .  T
C3259      C3260   1.411       .  A
C3259      C3264   1.416       .  A
C3260      C3261   1.412       .  A
C3260      C3265   1.451       .  S
C3261      C3262   1.418       .  A
C3261      C3268   1.452       .  S
C3262      C3263   1.414       .  A
C3263      C3264   1.411       .  A
C3263      C3266   1.452       .  S
C3264      C3267   1.452       .  S
C3265      N3272   1.157       .  T
C3266      N3271   1.157       .  T
C3267      N3269   1.157       .  T
C3268      N3270   1.158       .  T
C3273      C3274   1.413       .  A
C3273      C3278   1.410       .  A
C3274      C3275   1.412       .  A
C3274      C3279   1.451       .  S
C3275      C3276   1.413       .  A
C3275      C3282   1.450       .  S
C3276      C3277   1.416       .  A
C3277      C3278   1.407       .  A
C3277      C3280   1.452       .  S
C3278      C3281   1.453       .  S
C3279      N3286   1.158       .  T
C3281      N3283   1.157       .  T
C3282      N3284   1.157       .  T
C3287      C3288   1.411       .  A
C3287      C3292   1.418       .  A
C3288      C3289   1.414       .  A
C3288      C3293   1.451       .  S
C3289      C3290   1.423       .  A
C3289      C3296   1.452       .  S
C3290      C3291   1.415       .  A
C3291      C3292   1.414       .  A
C3291      C3294   1.451       .  S
C3292      C3295   1.453       .  S
C3293      N3300   1.157       .  T
C3294      N3299   1.157       .  T
C3295      N3297   1.158       .  T
C3296      N3298   1.158       .  T
C3301      C3302   1.419       .  A
C3301      C3306   1.417       .  A
C3302      C3303   1.411       .  A
C3302      C3307   1.453       .  S
C3303      C3304   1.413       .  A
C3303      C3310   1.453       .  S
C3304      C3305   1.415       .  A
C3305      C3306   1.415       .  A
C3305      C3308   1.451       .  S
C3306      C3309   1.451       .  S
C3307      N3314   1.157       .  T
C3308      N4483   1.157       .  T
C3309      N4481   1.158       .  T
C3310      N3312   1.157       .  T
N3311      C4479   1.158       .  T
N3313      C4478   1.157       .  T
C3315      C3316   1.421       .  A
C3315      C3320   1.429       .  A
C3316      C3317   1.405       .  A
C3317      C3318   1.411       .  A
C3317      C3324   1.455       .  S
C3318      C3319   1.403       .  A
C3319      C3320   1.413       .  A
C3319      C3322   1.452       .  S
C3320      C3323   1.451       .  S
C3321      N3328   1.157       .  T
C3322      N3327   1.157       .  T
C3323      N3325   1.158       .  T
C3324      N3326   1.157       .  T
C3329      C3330   1.408       .  A
C3329      C3334   1.411       .  A
C3330      C3331   1.406       .  A
C3330      C3335   1.454       .  S
C3331      C3332   1.421       .  A
C3331      C3338   1.454       .  S
C3332      C3333   1.417       .  A
C3333      C3334   1.419       .  A
C3333      C3336   1.449       .  S
C3334      C3337   1.449       .  S
C3335      N3342   1.157       .  T
C3336      N3341   1.157       .  T
C3337      N3339   1.157       .  T
C3338      N3340   1.158       .  T
C3343      C4514   1.427       .  A
C3343      C3348   1.421       .  A
C3344      C4513   1.428       .  A
C3344      C3345   1.416   1_565  A
C3344      C3349   1.453       .  S
C3345      C3346   1.410       .  A
C3345      C3352   1.451       .  S
C3346      C4517   1.417       .  A
C3347      C4516   1.416       .  A
C3347      C3348   1.416       .  A
C3347      C3350   1.453       .  S
C3348      C3351   1.451       .  S
C3349      N3356   1.157       .  T
C3350      N3355   1.157       .  T
C3351      N3353   1.158       .  T
C3352      N3354   1.157       .  T
C3357      C3358   1.411       .  A
C3357      C3362   1.411       .  A
C3358      C3359   1.417       .  A
C3358      C3363   1.451       .  S
C3359      C3360   1.422       .  A
C3359      C3366   1.451       .  S
C3360      C3361   1.424       .  A
C3361      C3362   1.411       .  A
C3361      C3364   1.452       .  S
C3362      C3365   1.454       .  S
C3363      N3370   1.157       .  T
C3364      N3369   1.157       .  T
C3365      N3367   1.157       .  T
C3366      N3368   1.158       .  T
C3371      C3372   1.405       .  A
C3371      C3376   1.409       .  A
C3372      C3373   1.412       .  A
C3372      C3377   1.451       .  S
C3373      C3374   1.424       .  A
C3373      C3380   1.452       .  S
C3374      C3375   1.420       .  A
C3375      C3376   1.412       .  A
C3375      C3378   1.451       .  S
C3376      C3379   1.451       .  S
C3377      N4554   1.157       .  T
C3378      N3383   1.158       .  T
C3379      N3381   1.157       .  T
C3380      N3382   1.158       .  T
N3384      C4547   1.157       .  T
C3385      C3386   1.416       .  A
C3385      C3390   1.424       .  A
C3386      C3387   1.417       .  A
C3386      C3391   1.450       .  S
C3387      C3388   1.415       .  A
C3387      C3394   1.451       .  S
C3388      C3389   1.409       .  A
C3389      C3390   1.406       .  A
C3389      C3392   1.455       .  S
C3390      C3393   1.454       .  S
C3391      N3398   1.157       .  T
C3392      N3397   1.157       .  T
C3393      N3395   1.158       .  T
C3399      C3400   1.419       .  A
C3399      C3404   1.412       .  A
C3400      C3401   1.415       .  A
C3400      C3405   1.452       .  S
C3401      C3402   1.410       .  A
C3401      C3408   1.451       .  S
C3402      C3403   1.416       .  A
C3403      C3404   1.419       .  A
C3403      C3406   1.451       .  S
C3404      C3407   1.449       .  S
C3405      N3412   1.157       .  T
C3406      N3411   1.157       .  T
C3407      N3409   1.157       .  T
C3408      N3410   1.157       .  T
C3413      C3621   1.484   1_545  S
C3413      C3414   1.409       .  A
C3413      C3418   1.416       .  A
C3414      C3415   1.410       .  A
C3414      C3419   1.451       .  S
C3415      C3416   1.415       .  A
C3415      C3422   1.452       .  S
C3416      C3417   1.409       .  A
C3417      C3418   1.415       .  A
C3417      C3420   1.449       .  S
C3418      C3421   1.450       .  S
C3419      N3426   1.157   1_545  T
C3420      N3425   1.157       .  T
C3421      N4593   1.157       .  T
N3423      C4591   1.157       .  T
C3427      C3428   1.414       .  A
C3427      C3432   1.413       .  A
C3428      C3429   1.412       .  A
C3428      C3433   1.451       .  S
C3429      C3430   1.412       .  A
C3429      C3436   1.451       .  S
C3430      C3431   1.413       .  A
C3431      C3432   1.409       .  A
C3431      C3434   1.453       .  S
C3432      C3435   1.451       .  S
C3434      N3439   1.158       .  T
C3435      N3437   1.157       .  T
C3441      C3442   1.417       .  A
C3441      C3446   1.412       .  A
C3442      C3443   1.403       .  A
C3442      C3447   1.455       .  S
C3443      C3444   1.414       .  A
C3443      C3450   1.455       .  S
C3444      C3445   1.416       .  A
C3445      C3446   1.414       .  A
C3445      C3448   1.450       .  S
C3446      C3449   1.450       .  S
C3447      N3454   1.158       .  T
C3449      N3451   1.157       .  T
C3450      N3452   1.158       .  T
C3455      C3456   1.416       .  A
C3455      C3460   1.410       .  A
C3456      C3457   1.404       .  A
C3456      C3461   1.452       .  S
C3457      C3458   1.412       .  A
C3457      C3464   1.454       .  S
C3458      C3530   1.483       .  S
C3458      C3459   1.417       .  A
C3459      C3460   1.412       .  A
C3459      C3462   1.451       .  S
C3460      C3463   1.451       .  S
C3461      N3468   1.157       .  T
C3462      N4637   1.157       .  T
C3463      N3465   1.157       .  T
C3464      N3466   1.158       .  T
N3467      C4632   1.157       .  T
C3469      C3470   1.412       .  A
C3469      C3474   1.418       .  A
C3470      C3471   1.410       .  A
C3470      C3475   1.450       .  S
C3471      C3472   1.412       .  A
C3471      C3478   1.452       .  S
C3472      C3473   1.406       .  A
C3473      C3474   1.409       .  A
C3473      C4646   1.450       .  S
C3474      C3477   1.451       .  S
C3475      N3482   1.157       .  T
C3476      C4643   1.450       .  S
C3476      N3481   1.157       .  T
C3477      N3479   1.157       .  T
C3478      N3480   1.157       .  T
C3483      C3484   1.416       .  A
C3483      C3488   1.408       .  A
C3484      C3485   1.404       .  A
C3485      C3486   1.407       .  A
C3485      C3492   1.451       .  S
C3486      C3487   1.414       .  A
C3487      C3488   1.412       .  A
C3487      C3490   1.450       .  S
C3488      C3491   1.449       .  S
C3489      N3496   1.157   1_455  T
C3490      N3495   1.157       .  T
C3491      N3493   1.157       .  T
C3492      N3494   1.157       .  T
C3497      C3498   1.411       .  A
C3498      C3499   1.416       .  A
C3498      C3503   1.453       .  S
C3499      C3506   1.453       .  S
C3500      C3501   1.415       .  A
C3501      C3502   1.418       .  A
C3501      C3504   1.451       .  S
C3502      C3505   1.451       .  S
C3503      N3510   1.158       .  T
C3504      N3509   1.157       .  T
C3505      N3507   1.157       .  T
C3506      N3508   1.157       .  T
Zn3511     O3515   1.910       .  S
Zn3511     O3516   1.968       .  S
Zn3511     O3520   1.997       .  S
Zn3511     O3527   2.008       .  S
Zn3512     O3515   1.950       .  S
Zn3512     O3517   2.003       .  S
Zn3512     O3523   2.040       .  S
Zn3513     O3515   1.945       .  S
Zn3513     O3518   2.005       .  S
Zn3513     O3521   2.071       .  S
Zn3513     O3524   2.044       .  S
Zn3514     O3515   1.897       .  S
Zn3514     O3522   1.984       .  S
Zn3514     O3525   1.969       .  S
Zn3514     O3526   2.017       .  S
O3517      C3529   1.271       .  A
O3518      C3530   1.274       .  A
O3519      C3528   1.277       .  A
O3520      C3530   1.272       .  A
O3521      C3529   1.282       .  A
O3522      C3531   1.272       .  A
O3523      C3532   1.278       .  A
O3524      C3531   1.279       .  A
O3525      C3532   1.272       .  A
O3526      C3533   1.272       .  A
O3527      C3533   1.272       .  A
C3528      C4653   1.475       .  S
C3529      C4667   1.506       .  S
C3531      C4639   1.484       .  S
C3532      C4614   1.482       .  S
C3533      C4597   1.482       .  S
Zn3534     O3538   1.906       .  S
Zn3534     O3539   1.985       .  S
Zn3534     O3543   2.021       .  S
Zn3534     O3550   2.007       .  S
Zn3535     O3538   1.951       .  S
Zn3535     O3542   2.041       .  S
Zn3535     O3546   1.982       .  S
Zn3536     O3538   1.916       .  S
Zn3536     O3541   2.029       .  S
Zn3536     O3544   1.986       .  S
Zn3536     O3547   2.000       .  S
Zn3537     O3538   1.955       .  S
Zn3537     O3545   2.040       .  S
Zn3537     O3548   2.101       .  S
Zn3537     O3549   2.079       .  S
O3539      C3551   1.273       .  A
O3540      C3552   1.279       .  A
O3541      C3553   1.274       .  A
O3542      C3551   1.278       .  A
O3543      C3553   1.275       .  A
O3545      C3554   1.277       .  A
O3546      C3555   1.269       .  A
O3547      C3554   1.273       .  A
O3548      C3555   1.286       .  A
O3549      C3556   1.283       .  A
O3550      C3556   1.273       .  A
C3551      C4558   1.486       .  S
C3552      C4586   1.481       .  S
C3553      C4527   1.490       .  S
C3554      C4544   1.502       .  S
C3555      C4670   1.516       .  S
C3556      C4572   1.493       .  S
Zn3557     O3561   1.953       .  S
Zn3557     O3562   2.072       .  S
Zn3557     O3566   2.069       .  S
Zn3557     O3573   1.988       .  S
Zn3558     O3561   1.918       .  S
Zn3558     O3563   1.996       .  S
Zn3558     O3565   1.956       .  S
Zn3558     O3569   1.997       .  S
Zn3559     O3561   1.898       .  S
Zn3559     O3564   1.989       .  S
Zn3559     O3567   2.007       .  S
Zn3560     O3561   1.959       .  S
Zn3560     O3571   2.054       .  S
Zn3560     O3572   2.065       .  S
O3562      C3574   1.282       .  A
O3563      C3575   1.269       .  A
O3564      C3576   1.269       .  A
O3565      C3574   1.269       .  A
O3566      C3576   1.280       .  A
O3567      C3575   1.273       .  A
O3568      C3577   1.281       .  A
O3569      C3578   1.272       .  A
O3570      C3577   1.269       .  A
O3571      C3578   1.278       .  A
O3572      C3579   1.282       .  A
O3573      C3579   1.271       .  A
C3574      C4555   1.494       .  S
C3576      C4513   1.516       .  S
C3577      C4541   1.477       .  S
C3578      C4471   1.499       .  S
C3579      C4499   1.481       .  S
Zn3580     O3584   1.916       .  S
Zn3580     O3585   1.975       .  S
Zn3580     O3589   1.991       .  S
Zn3580     O3596   1.979       .  S
Zn3581     O3584   1.974       .  S
Zn3581     O3586   2.065       .  S
Zn3581     O3588   2.035       .  S
Zn3581     O3592   2.088       .  S
Zn3582     O3584   1.926       .  S
Zn3582     O3587   2.038       .  S
Zn3582     O3590   1.999       .  S
Zn3582     O3593   2.000       .  S
Zn3583     O3584   1.949       .  S
Zn3583     O3591   2.021       .  S
Zn3583     O3594   1.976       .  S
O3585      C3597   1.268       .  A
O3586      C3598   1.282       .  A
O3587      C3599   1.275       .  A
O3588      C3597   1.275       .  A
O3589      C3599   1.269       .  A
O3590      C3598   1.274       .  A
O3591      C3600   1.274       .  A
O3592      C3601   1.283       .  A
O3593      C3600   1.272       .  A
O3594      C3601   1.269       .  A
O3595      C3602   1.276       .  A
C3597      C4656   1.471       .  S
C3598      C4460   1.503       .  S
C3599      C4429   1.486       .  S
C3600      C4642   1.473       .  S
C3601      C4516   1.498       .  S
C3602      C4443   1.480       .  S
Zn3603     O3607   1.890       .  S
Zn3603     O3608   2.047       .  S
Zn3603     O3612   1.977       .  S
Zn3603     O3619   2.011       .  S
Zn3604     O3607   1.899       .  S
Zn3604     O3609   1.991       .  S
Zn3604     O3611   1.990       .  S
Zn3604     O3615   1.955       .  S
Zn3605     O3607   1.955       .  S
Zn3605     O3610   2.087       .  S
Zn3605     O3613   2.057       .  S
Zn3605     O3616   2.122       .  S
Zn3606     O3607   1.934       .  S
Zn3606     O3614   1.983       .  S
Zn3606     O3617   2.049       .  S
Zn3606     O3618   2.078       .  S
O3608      C3620   1.277       .  A
O3609      C3621   1.270       .  A
O3610      C3622   1.288       .  A
O3611      C3620   1.269       .  A
O3612      C3622   1.274       .  A
O3613      C3621   1.277       .  A
O3614      C3623   1.269       .  A
O3615      C3624   1.271       .  A
O3616      C3623   1.289       .  A
O3617      C3624   1.282       .  A
O3618      C3625   1.281       .  A
O3619      C3625   1.274       .  A
C3620      C4401   1.486       .  S
C3622      C4502   1.501       .  S
C3623      C4418   1.519       .  S
C3624      C4488   1.473       .  S
C3625      C4569   1.497       .  S
Zn3626     O3630   1.913       .  S
Zn3626     O3631   2.010       .  S
Zn3626     O3635   2.041       .  S
Zn3626     O3642   1.963       .  S
Zn3627     O3630   1.940       .  S
Zn3627     O3632   2.058       .  S
Zn3627     O3634   2.063       .  S
Zn3627     O3638   1.982       .  S
Zn3628     O3630   1.905       .  S
Zn3628     O3633   1.987       .  S
Zn3628     O3636   1.951       .  S
Zn3628     O3639   1.982       .  S
Zn3629     O3630   1.961       .  S
Zn3629     O3637   2.065       .  S
Zn3629     O3640   2.075       .  S
Zn3629     O3641   2.054       .  S
O3631      C3643   1.271       .  A
O3632      C3644   1.282       .  A
O3633      C3645   1.269       .  A
O3634      C3643   1.278       .  A
O3635      C3645   1.277       .  A
O3636      C3644   1.268       .  A
O3637      C3646   1.278       .  A
O3638      C3647   1.271       .  A
O3639      C3646   1.269       .  A
O3640      C3647   1.283       .  A
O3641      C3648   1.281       .  A
O3642      C3648   1.271       .  A
C3643      C4415   1.496       .  S
C3644      C4611   1.485       .  S
C3646      C4387   1.514       .  S
C3647      C4457   1.494       .  S
C3648      C4625   1.477       .  S
Zn3649     O3653   1.913       .  S
Zn3649     O3654   1.986       .  S
Zn3649     O3658   1.975       .  S
Zn3649     O3665   1.981       .  S
Zn3650     O3655   1.954       .  S
Zn3650     O3657   2.016       .  S
Zn3650     O3661   1.985       .  S
Zn3651     O3653   1.961       .  S
Zn3651     O3656   2.033       .  S
Zn3651     O3662   1.994       .  S
Zn3652     O3653   1.958       .  S
Zn3652     O3660   2.065       .  S
Zn3652     O3664   2.019       .  S
O3655      C3667   1.268       .  A
O3656      C3668   1.276       .  A
O3657      C3666   1.271   1_655  A
O3658      C3668   1.271       .  A
O3659      C3667   1.277       .  A
O3660      C3669   1.281       .  A
O3661      C3670   1.271       .  A
O3662      C3669   1.272       .  A
O3663      C3670   1.278       .  A
O3664      C3671   1.273       .  A
O3665      C3671   1.269       .  A
C3667      C4359   1.499       .  S
C3668      C4320   1.475       .  S
C3669      C4376   1.496       .  S
C3670      C4331   1.481       .  S
C3671      C4345   1.467       .  S
Zn3672     O3676   1.907       .  S
Zn3672     O3677   1.975       .  S
Zn3672     O3681   1.998       .  S
Zn3672     O3688   2.022       .  S
Zn3673     O3676   1.965       .  S
Zn3673     O3680   2.063       .  S
Zn3673     O3684   2.050       .  S
Zn3674     O3676   1.942       .  S
Zn3674     O3679   2.053       .  S
Zn3674     O3682   1.968       .  S
Zn3674     O3685   2.074       .  S
Zn3675     O3676   1.913       .  S
Zn3675     O3683   1.977       .  S
Zn3675     O3686   2.002       .  S
Zn3675     O3687   1.985       .  S
O3677      C3689   1.271       .  A
O3678      C3690   1.281       .  A
O3679      C3691   1.279       .  A
O3680      C3689   1.280       .  A
O3681      C3691   1.271       .  A
O3683      C3692   1.270       .  A
O3684      C3693   1.277       .  A
O3685      C3692   1.282       .  A
O3686      C3693   1.272       .  A
O3687      C3694   1.269       .  A
O3688      C3694   1.275       .  A
C3689      C4261   1.476       .  S
C3690      C4278   1.487       .  S
C3691      C4373   1.504       .  S
C3692      C4250   1.507       .  S
C3693      C4530   1.507       .  S
C3694      C4292   1.472       .  S
Zn3695     O3699   1.903       .  S
Zn3695     O3700   1.980       .  S
Zn3695     O3704   1.991       .  S
Zn3695     O3711   1.957       .  S
Zn3696     O3699   1.969       .  S
Zn3696     O3701   2.058       .  S
Zn3696     O3703   2.036       .  S
Zn3696     O3707   2.083       .  S
Zn3697     O3699   1.916       .  S
Zn3697     O3702   2.042       .  S
Zn3697     O3705   1.977       .  S
Zn3697     O3708   2.001       .  S
Zn3698     O3699   1.947       .  S
Zn3698     O3706   2.049       .  S
Zn3698     O3709   1.986       .  S
Zn3698     O3710   2.040       .  S
O3700      C3712   1.269       .  A
O3701      C3713   1.281       .  A
O3702      C3714   1.275       .  A
O3703      C3712   1.275       .  A
O3704      C3714   1.269       .  A
O3705      C3713   1.273       .  A
O3706      C3715   1.277       .  A
O3707      C3716   1.282       .  A
O3708      C3715   1.272       .  A
O3709      C3716   1.270       .  A
O3710      C3717   1.278       .  A
O3711      C3717   1.269       .  A
C3712      C4219   1.475       .  S
C3714      C4404   1.483       .  S
C3715      C4205   1.481       .  S
C3716      C4236   1.503       .  S
C3717      C4289   1.480       .  S
Zn3718     O3722   1.896       .  S
Zn3718     O3723   2.018       .  S
Zn3718     O3727   2.021       .  S
Zn3718     O3734   1.973       .  S
Zn3719     O3722   1.910       .  S
Zn3719     O3724   2.057       .  S
Zn3719     O3726   2.047       .  S
Zn3719     O3730   1.989       .  S
Zn3720     O3722   1.906       .  S
Zn3720     O3725   1.989       .  S
Zn3720     O3728   2.009       .  S
Zn3720     O3731   2.010       .  S
Zn3721     O3722   1.942       .  S
Zn3721     O3729   2.037       .  S
Zn3721     O3732   2.065       .  S
Zn3721     O3733   2.067       .  S
O3723      C3735   1.273       .  A
O3724      C3736   1.282       .  A
O3725      C3737   1.270       .  A
O3726      C3735   1.278       .  A
O3727      C3737   1.276       .  A
O3728      C3736   1.276       .  A
O3729      C3738   1.275       .  A
O3730      C3739   1.274       .  A
O3731      C3738   1.275       .  A
O3732      C3739   1.282       .  A
O3733      C3740   1.282       .  A
O3734      C3740   1.271       .  A
C3735      C4233   1.518       .  S
C3736      C4191   1.508       .  S
C3737      C4317   1.479       .  S
C3738      C4163   1.509       .  S
C3739      C4334   1.491       .  S
C3740      C4177   1.477       .  S
Zn3741     O3746   1.956       .  S
Zn3741     O3750   2.012       .  S
Zn3741     O3757   2.012       .  S
Zn3742     O3745   1.953       .  S
Zn3742     O3747   2.073       .  S
Zn3742     O3753   2.056       .  S
Zn3743     O3745   1.909       .  S
Zn3743     O3748   2.048       .  S
Zn3743     O3751   1.992       .  S
Zn3743     O3754   2.043       .  S
Zn3744     O3745   1.899       .  S
Zn3744     O3752   1.971       .  S
Zn3744     O3755   2.002       .  S
O3746      C3758   1.266       .  A
O3747      C3759   1.283       .  A
O3749      C3758   1.281       .  A
O3750      C3760   1.272       .  A
O3751      C3759   1.273       .  A
O3752      C3761   1.273       .  A
O3753      C3762   1.280       .  A
O3754      C3761   1.280       .  A
O3755      C3762   1.275       .  A
O3756      C3763   1.273       .  A
O3757      C3763   1.273       .  A
C3758      C4348   1.486       .  S
C3759      C4194   1.507       .  S
C3760      C4152   1.495       .  S
C3761      C4362   1.474       .  S
C3762      C4135   1.493       .  S
C3763      C4180   1.486       .  S
Zn3764     O3768   1.950       .  S
Zn3764     O3769   2.052       .  S
Zn3764     O3773   2.027       .  S
Zn3764     O3780   2.083       .  S
Zn3765     O3768   1.897       .  S
Zn3765     O3770   2.021       .  S
Zn3765     O3772   1.995       .  S
Zn3765     O3776   1.994       .  S
Zn3766     O3768   1.917       .  S
Zn3766     O3771   2.017       .  S
Zn3766     O3774   2.021       .  S
Zn3766     O3777   1.983       .  S
Zn3767     O3768   1.944       .  S
Zn3767     O3775   2.045       .  S
Zn3767     O3779   1.983       .  S
O3769      C3781   1.281       .  A
O3770      C3782   1.275       .  A
O3771      C3783   1.275       .  A
O3772      C3781   1.274       .  A
O3773      C3783   1.275       .  A
O3774      C3782   1.274       .  A
O3775      C3784   1.279       .  A
O3777      C3784   1.273       .  A
O3778      C3785   1.278       .  A
O3779      C3786   1.270       .  A
O3780      C3786   1.284       .  A
C3782      C4474   1.489       .  S
C3783      C4264   1.507       .  S
C3784      C4222   1.479       .  S
C3785      C4247   1.488       .  S
C3786      C4149   1.506       .  S
Zn3787     O3791   1.916       .  S
Zn3787     O3792   1.985       .  S
Zn3787     O3796   2.000       .  S
Zn3787     O3803   2.031       .  S
Zn3788     O3791   1.976       .  S
Zn3788     O3793   2.105       .  S
Zn3788     O3795   2.066       .  S
Zn3788     O3799   2.036       .  S
Zn3789     O3791   1.938       .  S
Zn3789     O3794   2.036       .  S
Zn3789     O3797   1.955       .  S
Zn3789     O3800   2.033       .  S
Zn3790     O3791   1.918       .  S
Zn3790     O3798   1.978       .  S
Zn3790     O3801   1.995       .  S
Zn3790     O3802   2.011       .  S
O3792      C3804   1.271       .  A
O3793      C3805   1.285       .  A
O3794      C3806   1.275       .  A
O3795      C3804   1.282       .  A
O3796      C3806   1.272       .  A
O3797      C3805   1.266       .  A
O3798      C3807   1.270       .  A
O3799      C3808   1.276       .  A
O3800      C3807   1.276       .  A
O3801      C3808   1.272       .  A
O3802      C3809   1.271       .  A
O3803      C3809   1.274       .  A
C3805      C4121   1.499       .  S
C3806      C4093   1.478       .  S
C3807      C4079   1.474       .  S
C3808      C4110   1.503       .  S
C3809      C4390   1.481       .  S
Zn3810     O3814   1.946       .  S
Zn3810     O3815   2.061       .  S
Zn3810     O3819   2.062       .  S
Zn3810     O3826   2.006       .  S
Zn3811     O3814   1.927       .  S
Zn3811     O3816   1.990       .  S
Zn3811     O3818   1.978       .  S
Zn3811     O3822   2.001       .  S
Zn3812     O3814   1.923       .  S
Zn3812     O3817   1.998       .  S
Zn3812     O3820   2.021       .  S
Zn3812     O3823   1.975       .  S
Zn3813     O3814   1.953       .  S
Zn3813     O3821   2.044       .  S
Zn3813     O3824   2.046       .  S
Zn3813     O3825   2.051       .  S
O3815      C3827   1.282       .  A
O3816      C3828   1.269       .  A
O3817      C3829   1.270       .  A
O3818      C3827   1.270       .  A
O3819      C3829   1.280       .  A
O3820      C3828   1.274       .  A
O3821      C3830   1.277       .  A
O3822      C3831   1.271       .  A
O3823      C3830   1.271       .  A
O3824      C3831   1.277       .  A
O3825      C3832   1.280       .  A
O3826      C3832   1.273       .  A
C3827      C4023   1.507       .  S
C3828      C4040   1.473       .  S
C3829      C4124   1.516       .  S
C3830      C4009   1.472       .  S
C3831      C4166   1.506       .  S
C3832      C4054   1.484       .  S
Zn3833     O3837   1.911       .  S
Zn3833     O3838   1.990       .  S
Zn3833     O3842   1.938       .  S
Zn3833     O3849   1.986       .  S
Zn3834     O3837   1.914       .  S
Zn3834     O3839   1.989       .  S
Zn3834     O3841   2.039       .  S
Zn3834     O3845   2.007       .  S
Zn3835     O3837   1.961       .  S
Zn3835     O3840   2.060       .  S
Zn3835     O3846   2.014       .  S
Zn3836     O3837   1.956       .  S
Zn3836     O3844   2.077       .  S
Zn3836     O3847   2.043       .  S
Zn3836     O3848   2.025       .  S
O3838      C3850   1.268       .  A
O3840      C3852   1.279       .  A
O3841      C3850   1.274       .  A
O3842      C3852   1.267       .  A
O3843      C3851   1.281       .  A
O3844      C3853   1.282       .  A
O3845      C3854   1.275       .  A
O3846      C3853   1.273       .  A
O3847      C3854   1.279       .  A
O3848      C3855   1.274       .  A
O3849      C3855   1.271       .  A
C3850      C4432   1.490       .  S
C3851      C4068   1.492       .  S
C3852      C3984   1.487       .  S
C3853      C3998   1.498       .  S
C3854      C3967   1.484       .  S
C3855      C4082   1.494       .  S
Zn3856     O3860   1.916       .  S
Zn3856     O3861   2.019       .  S
Zn3857     O3860   1.861       .  S
Zn3857     O3862   1.994       .  S
Zn3857     O3864   1.973       .  S
Zn3857     O3868   1.950       .  S
Zn3858     O3863   2.059       .  S
Zn3858     O3866   2.071   1_565  S
Zn3858     O3869   1.943       .  S
Zn3859     O3860   1.941       .  S
Zn3859     O3870   2.067       .  S
O3861      C3873   1.273       .  A
O3862      C3874   1.268       .  A
O3863      C3875   1.283       .  A
O3864      C3873   1.270       .  A
O3865      C3875   1.275       .  A
O3867      C3876   1.282       .  A
O3868      C3877   1.269       .  A
O3869      C3876   1.267       .  A
O3870      C3877   1.282       .  A
O3871      C3878   1.276       .  A
O3872      C3878   1.275       .  A
C3873      C3953   1.488       .  S
C3874      C3995   1.498       .  S
C3875      C4051   1.491       .  S
C3876      C3939   1.490       .  S
C3877      C4037   1.470       .  S
Zn3879     O3883   1.893       .  S
Zn3879     O3884   2.021       .  S
Zn3879     O3888   2.038       .  S
Zn3879     O3895   1.981       .  S
Zn3880     O3883   1.895       .  S
Zn3880     O3887   1.979       .  S
Zn3880     O3891   1.992       .  S
Zn3881     O3886   2.018       .  S
Zn3881     O3889   2.013       .  S
Zn3881     O3892   1.963       .  S
Zn3882     O3883   1.941       .  S
Zn3882     O3893   2.025       .  S
Zn3882     O3894   2.053       .  S
O3884      C3896   1.280       .  A
O3885      C3897   1.270       .  A
O3886      C3898   1.273       .  A
O3887      C3896   1.274       .  A
O3889      C3897   1.274       .  A
O3890      C3899   1.279       .  A
O3891      C3900   1.274       .  A
O3892      C3899   1.267       .  A
O3893      C3900   1.277       .  A
O3894      C3901   1.280       .  A
O3895      C3901   1.270       .  A
C3896      C3942   1.467       .  S
C3897      C4012   1.483       .  S
C3898      C3925   1.491       .  S
C3899      C3956   1.483       .  S
C3900      C4303   1.492       .  S
C3901      C4026   1.491       .  S
Zn3902     O3906   1.917       .  S
Zn3902     O3911   2.019       .  S
Zn3902     O3918   1.985       .  S
Zn3903     O3906   1.953       .  S
Zn3903     O3908   2.039       .  S
Zn3903     O3914   1.987       .  S
Zn3904     O3906   1.921       .  S
Zn3904     O3909   1.999       .  S
Zn3904     O3912   1.987       .  S
Zn3904     O3915   1.980       .  S
Zn3905     O3906   1.974       .  S
Zn3905     O3913   2.023       .  S
Zn3905     O3916   2.069       .  S
Zn3905     O3917   2.050       .  S
O3907      C3919   1.271       .  A
O3908      C3920   1.277       .  A
O3909      C3921   1.270       .  A
O3910      C3919   1.277       .  A
O3911      C3921   1.273       .  A
O3912      C3920   1.272       .  A
O3913      C3922   1.272       .  A
O3914      C3923   1.270       .  A
O3915      C3922   1.270       .  A
O3916      C3923   1.280       .  A
O3917      C3924   1.279       .  A
O3918      C3924   1.272       .  A
C3919      C3970   1.478       .  S
C3920      C4107   1.483       .  S
C3921      C4600   1.482       .  S
C3922      C3981   1.470       .  S
C3923      C3928   1.484       .  S
C3925      C3930   1.414       .  A
C3926      C3931   1.451       .  S
C3927      C3928   1.410       .  A
C3928      C3929   1.413       .  A
C3929      C3930   1.415       .  A
C3929      C3932   1.450       .  S
C3930      C3933   1.451       .  S
C3931      N3938   1.157       .  T
C3932      N3937   1.157       .  T
C3933      N3935   1.157       .  T
C3934      N3936   1.157       .  T
C3939      C3940   1.427       .  A
C3939      C3944   1.416       .  A
C3940      C3941   1.403       .  A
C3940      C3945   1.455       .  S
C3941      C3942   1.404       .  A
C3941      C3948   1.455       .  S
C3942      C3943   1.410       .  A
C3943      C3944   1.411       .  A
C3943      C3946   1.452       .  S
C3944      C3947   1.450       .  S
C3945      N3952   1.157       .  T
C3946      N3951   1.157       .  T
C3947      N3949   1.157       .  T
C3948      N3950   1.157       .  T
C3953      C3954   1.417       .  A
C3953      C3958   1.419       .  A
C3954      C3955   1.400       .  A
C3954      C3959   1.457       .  S
C3955      C3956   1.418       .  A
C3955      C3962   1.456       .  S
C3956      C3957   1.411       .  A
C3957      C3958   1.415       .  A
C3957      C3960   1.450       .  S
C3958      C3961   1.451       .  S
C3959      N3966   1.158       .  T
C3960      N3965   1.157       .  T
C3961      N3963   1.158       .  T
C3962      N3964   1.157       .  T
C3967      C3968   1.410       .  A
C3967      C3972   1.417       .  A
C3968      C3969   1.410       .  A
C3968      C3973   1.450       .  S
C3969      C3970   1.413       .  A
C3969      C3976   1.452       .  S
C3970      C3971   1.408       .  A
C3971      C3972   1.413       .  A
C3971      C3974   1.450       .  S
C3972      C3975   1.451       .  S
C3973      N3980   1.157       .  T
C3974      N3979   1.157       .  T
C3975      N3977   1.158       .  T
C3976      N3978   1.157       .  T
C3981      C3982   1.404       .  A
C3981      C3986   1.412       .  A
C3982      C3983   1.400       .  A
C3982      C3987   1.455       .  S
C3983      C3984   1.423       .  A
C3983      C3990   1.455       .  S
C3984      C3985   1.414       .  A
C3985      C3986   1.416       .  A
C3986      C3989   1.450       .  S
C3987      N3994   1.157       .  T
C3988      N3993   1.157   1_545  T
C3990      N3992   1.157       .  T
C3995      C3996   1.415       .  A
C3995      C4000   1.416       .  A
C3996      C3997   1.416       .  A
C3996      C4001   1.451       .  S
C3997      C3998   1.415       .  A
C3997      C4004   1.449       .  S
C3998      C3999   1.414       .  A
C3999      C4000   1.418       .  A
C3999      C4002   1.449       .  S
C4001      N4008   1.157       .  T
C4003      N4005   1.158       .  T
C4004      N4006   1.157       .  T
C4009      C4010   1.407       .  A
C4009      C4014   1.410       .  A
C4010      C4011   1.411       .  A
C4010      C4015   1.451       .  S
C4011      C4012   1.418       .  A
C4011      C4018   1.451       .  S
C4012      C4013   1.411       .  A
C4013      C4014   1.407       .  A
C4013      C4016   1.451       .  S
C4014      C4017   1.451       .  S
C4015      N4022   1.157       .  T
C4016      N4021   1.157       .  T
C4017      N4019   1.157       .  T
C4018      N4020   1.157       .  T
C4023      C4024   1.418       .  A
C4023      C4028   1.428       .  A
C4024      C4025   1.414       .  A
C4024      C4029   1.451       .  S
C4025      C4026   1.416       .  A
C4025      C4032   1.452       .  S
C4026      C4027   1.411       .  A
C4027      C4028   1.413       .  A
C4027      C4030   1.454       .  S
C4028      C4031   1.454       .  S
C4029      N4036   1.157       .  T
C4030      N4035   1.158       .  T
C4031      N4033   1.158       .  T
C4032      N4034   1.157       .  T
C4037      C4038   1.412       .  A
C4037      C4042   1.411       .  A
C4038      C4039   1.410       .  A
C4038      C4043   1.451       .  S
C4039      C4040   1.410       .  A
C4039      C4046   1.450       .  S
C4040      C4041   1.411       .  A
C4041      C4042   1.407       .  A
C4041      C4044   1.452       .  S
C4042      C4045   1.452       .  S
C4043      N4050   1.157       .  T
C4044      N4049   1.157       .  T
C4045      N4047   1.157       .  T
C4046      N4048   1.157       .  T
C4051      C4052   1.413       .  A
C4051      C4056   1.419       .  A
C4052      C4053   1.415       .  A
C4052      C4057   1.450       .  S
C4053      C4054   1.413       .  A
C4053      C4060   1.449       .  S
C4054      C4055   1.410       .  A
C4055      C4056   1.410       .  A
C4055      C4058   1.453       .  S
C4056      C4059   1.453       .  S
C4057      N4064   1.157       .  T
C4058      N4063   1.157       .  T
C4059      N4061   1.158       .  T
C4060      N4062   1.157       .  T
C4065      C4066   1.425       .  A
C4065      C4070   1.431       .  A
C4066      C4067   1.418       .  A
C4066      C4071   1.450       .  S
C4067      C4068   1.410       .  A
C4067      C4074   1.449       .  S
C4068      C4069   1.409       .  A
C4069      C4070   1.410       .  A
C4069      C4072   1.456       .  S
C4070      C4073   1.453       .  S
C4071      N4078   1.157       .  T
C4074      N4076   1.157       .  T
C4079      C4080   1.407       .  A
C4079      C4084   1.410       .  A
C4080      C4081   1.408       .  A
C4080      C4085   1.452       .  S
C4081      C4082   1.421       .  A
C4081      C4088   1.452       .  S
C4082      C4083   1.419       .  A
C4083      C4084   1.411       .  A
C4083      C4086   1.452       .  S
C4084      C4087   1.452       .  S
C4085      N4092   1.157       .  T
C4086      N4091   1.158       .  T
C4087      N4089   1.157       .  T
C4088      N4090   1.158       .  T
C4093      C4094   1.406       .  A
C4093      C4098   1.414       .  A
C4094      C4095   1.409       .  A
C4094      C4099   1.451       .  S
C4095      C4096   1.419       .  A
C4095      C4102   1.452       .  S
C4096      C4097   1.412       .  A
C4097      C4098   1.413       .  A
C4098      C4101   1.451       .  S
C4099      N4106   1.157       .  T
C4100      N4105   1.157       .  T
C4101      N4103   1.157       .  T
C4102      N4104   1.157   1_565  T
C4107      C4108   1.408       .  A
C4107      C4112   1.412       .  A
C4108      C4109   1.409       .  A
C4108      C4113   1.453       .  S
C4109      C4110   1.423       .  A
C4109      C4116   1.453       .  S
C4110      C4111   1.422       .  A
C4111      C4112   1.414       .  A
C4111      C4114   1.451       .  S
C4113      N4120   1.157       .  T
C4115      N4117   1.157       .  T
C4116      N4118   1.158       .  T
C4121      C4122   1.418       .  A
C4121      C4126   1.411       .  A
C4122      C4123   1.414       .  A
C4122      C4127   1.454       .  S
C4123      C4124   1.421       .  A
C4123      C4130   1.452       .  S
C4124      C4125   1.428       .  A
C4125      C4126   1.420       .  A
C4125      C4128   1.452       .  S
C4126      C4129   1.451       .  S
C4127      N4134   1.157       .  T
C4128      N4133   1.157       .  T
C4129      N4131   1.157       .  T
C4130      N4132   1.158       .  T
C4135      C4140   1.416       .  A
C4136      C4137   1.417   1_554  A
C4136      C4141   1.451       .  S
C4137      C4144   1.450       .  S
C4138      C4139   1.414       .  A
C4139      C4140   1.409   1_556  A
C4139      C4142   1.453       .  S
C4140      C4143   1.451       .  S
C4141      N4148   1.157       .  T
C4142      N4147   1.157       .  T
C4143      N4145   1.157       .  T
C4144      N4146   1.157       .  T
C4149      C4150   1.414       .  A
C4149      C4154   1.427       .  A
C4150      C4151   1.417       .  A
C4150      C4155   1.451       .  S
C4151      C4152   1.419       .  A
C4151      C4158   1.450       .  S
C4152      C4153   1.407       .  A
C4153      C4154   1.412       .  A
C4153      C4156   1.453       .  S
C4154      C4157   1.451       .  S
C4155      N4162   1.157       .  T
C4157      N4159   1.157       .  T
C4158      N4160   1.157       .  T
C4163      C4164   1.419       .  A
C4163      C4168   1.424       .  A
C4164      C4165   1.413   1_554  A
C4164      C4169   1.455       .  S
C4165      C4166   1.422       .  A
C4165      C4172   1.452       .  S
C4166      C4167   1.416       .  A
C4167      C4168   1.417   1_556  A
C4167      C4170   1.453       .  S
C4168      C4171   1.451       .  S
C4169      N4176   1.157       .  T
C4170      N4175   1.156       .  T
C4171      N4173   1.159       .  T
C4172      N4174   1.159       .  T
C4177      C4178   1.412       .  A
C4177      C4182   1.411       .  A
C4178      C4179   1.411       .  A
C4178      C4183   1.452       .  S
C4179      C4180   1.414       .  A
C4179      C4186   1.452       .  S
C4180      C4181   1.413       .  A
C4181      C4182   1.412       .  A
C4181      C4184   1.451       .  S
C4182      C4185   1.451       .  S
C4183      N4190   1.157       .  T
C4184      N4189   1.157       .  T
C4185      N4187   1.157       .  T
C4186      N4188   1.157       .  T
C4191      C4192   1.417       .  A
C4191      C4196   1.423       .  A
C4192      C4193   1.415       .  A
C4192      C4197   1.452       .  S
C4193      C4194   1.422       .  A
C4193      C4200   1.453       .  S
C4194      C4195   1.416       .  A
C4195      C4196   1.416       .  A
C4195      C4198   1.451       .  S
C4196      C4199   1.453       .  S
C4197      N4204   1.158       .  T
C4198      N4203   1.157       .  T
C4199      N4201   1.158       .  T
C4200      N4202   1.158       .  T
C4205      C4206   1.407       .  A
C4205      C4210   1.414       .  A
C4206      C4207   1.412       .  A
C4206      C4211   1.450       .  S
C4207      C4208   1.417       .  A
C4208      C4209   1.411       .  A
C4209      C4210   1.412       .  A
C4209      C4212   1.450   1_655  S
C4210      C4213   1.451       .  S
C4211      N4218   1.157       .  T
C4212      N4217   1.157       .  T
C4213      N4215   1.157       .  T
C4214      N4216   1.157       .  T
C4219      C4220   1.414       .  A
C4219      C4224   1.409       .  A
C4220      C4221   1.413       .  A
C4220      C4225   1.451       .  S
C4221      C4222   1.409       .  A
C4222      C4223   1.416       .  A
C4223      C4224   1.406       .  A
C4223      C4226   1.454       .  S
C4224      C4227   1.452       .  S
C4226      N4231   1.157       .  T
C4227      N4229   1.157       .  T
C4228      N4230   1.157       .  T
C4233      C4234   1.427       .  A
C4233      C4238   1.424       .  A
C4234      C4235   1.419       .  A
C4234      C4239   1.452       .  S
C4235      C4236   1.412       .  A
C4235      C4242   1.451       .  S
C4236      C4237   1.417       .  A
C4237      C4238   1.416       .  A
C4237      C4240   1.454       .  S
C4238      C4241   1.453       .  S
C4239      N4246   1.158       .  T
C4240      N4245   1.158       .  T
C4241      N4243   1.158       .  T
C4242      N4244   1.157       .  T
C4247      C4248   1.408       .  A
C4247      C4252   1.413       .  A
C4248      C4249   1.408       .  A
C4248      C4253   1.455       .  S
C4249      C4250   1.427       .  A
C4249      C4256   1.454       .  S
C4250      C4251   1.420       .  A
C4251      C4252   1.420       .  A
C4251      C4254   1.450       .  S
C4252      C4255   1.450       .  S
C4253      N4260   1.157       .  T
C4254      N4259   1.157       .  T
C4255      N4257   1.157       .  T
C4256      N4258   1.158       .  T
C4261      C4262   1.406       .  A
C4261      C4266   1.408       .  A
C4262      C4263   1.413       .  A
C4262      C4267   1.451       .  S
C4263      C4264   1.424       .  A
C4263      C4270   1.451       .  S
C4264      C4265   1.423       .  A
C4265      C4266   1.412       .  A
C4265      C4268   1.451       .  S
C4267      N4274   1.157       .  T
C4269      N4271   1.157       .  T
C4270      N4272   1.158       .  T
C4275      C4276   1.410       .  A
C4275      C4280   1.413       .  A
C4276      C4277   1.403       .  A
C4277      C4278   1.418       .  A
C4278      C4279   1.414       .  A
C4279      C4280   1.418       .  A
C4279      C4282   1.449       .  S
C4280      C4283   1.450       .  S
C4281      N4288   1.157       .  T
C4282      N4287   1.157       .  T
C4283      N4285   1.157       .  T
C4284      N4286   1.157       .  T
C4289      C4290   1.416       .  A
C4289      C4294   1.416       .  A
C4290      C4291   1.411       .  A
C4290      C4295   1.451       .  S
C4291      C4292   1.410       .  A
C4291      C4298   1.451       .  S
C4292      C4293   1.409       .  A
C4293      C4294   1.405       .  A
C4293      C4296   1.453       .  S
C4294      C4297   1.453       .  S
C4295      N4302   1.157       .  T
C4296      N4301   1.157       .  T
C4297      N4299   1.157       .  T
C4298      N4300   1.157       .  T
C4303      C4304   1.420       .  A
C4304      C4305   1.412   1_556  A
C4304      C4309   1.451       .  S
C4305      C4306   1.410       .  A
C4305      C4312   1.452       .  S
C4307      C4308   1.406   1_554  A
C4307      C4310   1.454       .  S
C4308      C4311   1.453       .  S
C4309      N4316   1.157       .  T
C4310      N4315   1.157       .  T
C4311      N4313   1.157       .  T
C4312      N4314   1.157       .  T
C4317      C4318   1.416       .  A
C4317      C4322   1.411       .  A
C4318      C4319   1.407       .  A
C4318      C4323   1.453       .  S
C4319      C4320   1.410       .  A
C4319      C4326   1.452       .  S
C4320      C4321   1.413       .  A
C4321      C4322   1.410       .  A
C4321      C4324   1.451       .  S
C4322      C4325   1.451       .  S
C4323      N4330   1.158       .  T
C4324      N4329   1.157       .  T
C4325      N4327   1.157       .  T
C4326      N4328   1.157       .  T
C4331      C4332   1.409       .  A
C4331      C4336   1.412       .  A
C4332      C4333   1.405       .  A
C4332      C4337   1.453       .  S
C4333      C4334   1.418       .  A
C4333      C4340   1.454       .  S
C4334      C4335   1.415       .  A
C4335      C4336   1.418       .  A
C4335      C4338   1.449       .  S
C4336      C4339   1.450       .  S
C4337      N4344   1.157       .  T
C4338      N4343   1.157       .  T
C4339      N4341   1.157       .  T
C4340      N4342   1.157       .  T
C4345      C4346   1.403       .  A
C4345      C4350   1.411       .  A
C4346      C4347   1.399       .  A
C4346      C4351   1.455       .  S
C4347      C4348   1.422       .  A
C4347      C4354   1.454       .  S
C4348      C4349   1.414       .  A
C4349      C4350   1.415       .  A
C4349      C4352   1.449       .  S
C4350      C4353   1.450       .  S
C4351      N4358   1.157       .  T
C4352      N4357   1.157       .  T
C4353      N4355   1.157       .  T
C4354      N4356   1.157       .  T
C4359      C4360   1.423       .  A
C4359      C4364   1.422       .  A
C4360      C4361   1.400       .  A
C4360      C4365   1.455       .  S
C4361      C4362   1.406       .  A
C4361      C4368   1.455       .  S
C4362      C4363   1.409       .  A
C4363      C4364   1.416       .  A
C4363      C4366   1.450       .  S
C4364      C4367   1.449       .  S
C4365      N4372   1.158       .  T
C4366      N4371   1.157       .  T
C4367      N4369   1.157       .  T
C4368      N4370   1.157       .  T
C4373      C4374   1.420       .  A
C4373      C4378   1.421       .  A
C4374      C4375   1.414       .  A
C4375      C4376   1.414       .  A
C4376      C4377   1.413       .  A
C4377      C4378   1.416       .  A
C4377      C4380   1.450       .  S
C4378      C4381   1.452       .  S
C4379      N4386   1.158   1_455  T
C4380      N4385   1.157       .  T
C4381      N4383   1.157       .  T
C4382      N4384   1.157       .  T
C4387      C4388   1.431       .  A
C4387      C4392   1.425       .  A
C4388      C4389   1.410       .  A
C4388      C4393   1.453       .  S
C4389      C4390   1.404       .  A
C4389      C4396   1.455       .  S
C4390      C4391   1.408       .  A
C4391      C4392   1.417       .  A
C4391      C4394   1.451       .  S
C4392      C4395   1.450       .  S
C4393      N4400   1.158       .  T
C4394      N4399   1.157       .  T
C4395      N4397   1.158       .  T
C4396      N4398   1.157       .  T
C4401      C4402   1.412       .  A
C4401      C4406   1.416       .  A
C4402      C4403   1.412       .  A
C4402      C4407   1.451       .  S
C4403      C4404   1.413       .  A
C4403      C4410   1.451       .  S
C4404      C4405   1.411       .  A
C4405      C4406   1.412       .  A
C4405      C4408   1.451       .  S
C4406      C4409   1.452       .  S
C4407      N4414   1.157       .  T
C4408      N4413   1.157       .  T
C4409      N4411   1.157       .  T
C4410      N4412   1.157       .  T
C4415      C4416   1.403       .  A
C4415      C4420   1.416       .  A
C4416      C4417   1.418       .  A
C4416      C4421   1.452       .  S
C4417      C4418   1.435       .  A
C4417      C4424   1.451       .  S
C4418      C4419   1.416       .  A
C4419      C4420   1.419       .  A
C4419      C4422   1.449       .  S
C4420      C4423   1.451       .  S
C4421      N4428   1.157       .  T
C4422      N4427   1.157       .  T
C4423      N4425   1.157       .  T
C4424      N4426   1.157       .  T
C4429      C4430   1.411       .  A
C4429      C4434   1.415       .  A
C4430      C4431   1.412       .  A
C4430      C4435   1.451       .  S
C4431      C4432   1.417       .  A
C4431      C4438   1.452       .  S
C4432      C4433   1.414       .  A
C4433      C4434   1.412       .  A
C4433      C4436   1.452       .  S
C4434      C4437   1.452       .  S
C4435      N4442   1.157       .  T
C4436      N4441   1.157       .  T
C4437      N4439   1.157       .  T
C4438      N4440   1.157       .  T
C4443      C4444   1.414       .  A
C4443      C4448   1.411       .  A
C4444      C4445   1.413       .  A
C4444      C4449   1.451       .  S
C4445      C4446   1.412       .  A
C4445      C4452   1.450       .  S
C4446      C4447   1.415       .  A
C4447      C4448   1.406       .  A
C4447      C4450   1.452       .  S
C4448      C4451   1.453       .  S
C4449      N4456   1.158       .  T
C4451      N4453   1.157       .  T
C4452      N4454   1.157       .  T
C4457      C4458   1.411       .  A
C4457      C4462   1.418       .  A
C4458      C4459   1.414       .  A
C4458      C4463   1.451       .  S
C4459      C4460   1.423       .  A
C4459      C4466   1.452       .  S
C4460      C4461   1.416       .  A
C4461      C4462   1.415       .  A
C4461      C4464   1.451       .  S
C4462      C4465   1.453       .  S
C4463      N4470   1.157       .  T
C4464      N4469   1.157       .  T
C4465      N4467   1.158       .  T
C4466      N4468   1.157       .  T
C4471      C4472   1.420       .  A
C4471      C4476   1.418       .  A
C4472      C4473   1.411       .  A
C4472      C4477   1.452       .  S
C4473      C4474   1.412       .  A
C4473      C4480   1.453       .  S
C4474      C4475   1.414       .  A
C4475      C4476   1.416       .  A
C4475      C4478   1.451       .  S
C4476      C4479   1.451       .  S
C4477      N4484   1.157       .  T
C4480      N4482   1.157       .  T
C4485      C4486   1.421       .  A
C4485      C4490   1.429       .  A
C4486      C4487   1.405       .  A
C4487      C4488   1.411       .  A
C4487      C4494   1.455       .  S
C4488      C4489   1.403       .  A
C4489      C4490   1.413       .  A
C4489      C4492   1.451       .  S
C4490      C4493   1.451       .  S
C4491      N4498   1.157       .  T
C4492      N4497   1.157       .  T
C4493      N4495   1.158       .  T
C4494      N4496   1.157       .  T
C4499      C4500   1.407       .  A
C4499      C4504   1.411       .  A
C4500      C4501   1.408       .  A
C4500      C4505   1.454       .  S
C4501      C4502   1.424       .  A
C4501      C4508   1.454       .  S
C4502      C4503   1.418       .  A
C4503      C4504   1.418       .  A
C4503      C4506   1.450       .  S
C4504      C4507   1.449       .  S
C4505      N4512   1.157       .  T
C4506      N4511   1.157       .  T
C4507      N4509   1.157       .  T
C4508      N4510   1.158       .  T
C4513      C4518   1.422       .  A
C4514      C4515   1.417       .  A
C4514      C4519   1.452       .  S
C4515      C4516   1.410       .  A
C4515      C4522   1.451       .  S
C4517      C4518   1.417   1_545  A
C4517      C4520   1.453       .  S
C4518      C4521   1.451       .  S
C4519      N4526   1.157       .  T
C4520      N4525   1.157       .  T
C4521      N4523   1.158       .  T
C4522      N4524   1.157       .  T
C4527      C4528   1.412       .  A
C4527      C4532   1.411       .  A
C4528      C4529   1.417       .  A
C4528      C4533   1.451       .  S
C4529      C4530   1.422       .  A
C4529      C4536   1.451       .  S
C4530      C4531   1.424       .  A
C4531      C4532   1.411       .  A
C4531      C4534   1.452       .  S
C4532      C4535   1.454       .  S
C4533      N4540   1.157       .  T
C4534      N4539   1.157       .  T
C4535      N4537   1.157       .  T
C4536      N4538   1.158       .  T
C4541      C4542   1.405       .  A
C4541      C4546   1.409       .  A
C4542      C4543   1.412       .  A
C4542      C4547   1.451       .  S
C4543      C4544   1.424       .  A
C4543      C4550   1.452       .  S
C4544      C4545   1.420       .  A
C4545      C4546   1.412       .  A
C4545      C4548   1.451       .  S
C4546      C4549   1.451       .  S
C4548      N4553   1.158       .  T
C4549      N4551   1.157       .  T
C4550      N4552   1.158       .  T
C4555      C4556   1.415       .  A
C4555      C4560   1.422       .  A
C4556      C4557   1.417       .  A
C4556      C4561   1.450       .  S
C4557      C4558   1.416       .  A
C4557      C4564   1.451       .  S
C4558      C4559   1.411       .  A
C4559      C4560   1.406       .  A
C4559      C4562   1.455       .  S
C4560      C4563   1.454       .  S
C4561      N4568   1.157       .  T
C4562      N4567   1.157       .  T
C4563      N4565   1.157       .  T
C4569      C4570   1.419       .  A
C4569      C4574   1.412       .  A
C4570      C4571   1.415       .  A
C4570      C4575   1.452       .  S
C4571      C4572   1.410       .  A
C4571      C4578   1.451       .  S
C4572      C4573   1.417       .  A
C4573      C4574   1.419       .  A
C4573      C4576   1.451       .  S
C4574      C4577   1.449       .  S
C4575      N4582   1.157       .  T
C4576      N4581   1.157       .  T
C4577      N4579   1.157       .  T
C4578      N4580   1.157       .  T
C4583      C4584   1.409       .  A
C4583      C4588   1.416       .  A
C4584      C4585   1.409       .  A
C4584      C4589   1.451       .  S
C4585      C4586   1.415       .  A
C4585      C4592   1.452       .  S
C4586      C4587   1.408       .  A
C4587      C4588   1.414       .  A
C4587      C4590   1.449       .  S
C4588      C4591   1.450       .  S
C4589      N4596   1.157       .  T
C4590      N4595   1.157       .  T
C4597      C4598   1.414       .  A
C4597      C4602   1.413       .  A
C4598      C4599   1.411       .  A
C4598      C4603   1.451       .  S
C4599      C4600   1.412       .  A
C4599      C4606   1.451       .  S
C4600      C4601   1.414       .  A
C4601      C4602   1.410       .  A
C4601      C4604   1.453       .  S
C4602      C4605   1.451       .  S
C4604      N4609   1.158       .  T
C4605      N4607   1.157       .  T
C4611      C4612   1.419       .  A
C4611      C4616   1.413       .  A
C4612      C4613   1.404       .  A
C4612      C4617   1.455       .  S
C4613      C4614   1.412       .  A
C4613      C4620   1.455       .  S
C4614      C4615   1.415       .  A
C4615      C4616   1.414       .  A
C4615      C4618   1.450       .  S
C4616      C4619   1.450       .  S
C4617      N4624   1.158       .  T
C4619      N4621   1.157       .  T
C4620      N4622   1.158       .  T
C4625      C4626   1.416       .  A
C4625      C4630   1.409       .  A
C4626      C4627   1.404       .  A
C4626      C4631   1.452       .  S
C4627      C4628   1.412       .  A
C4627      C4634   1.454       .  S
C4628      C4629   1.417       .  A
C4629      C4630   1.412       .  A
C4629      C4632   1.451       .  S
C4630      C4633   1.451       .  S
C4631      N4638   1.157       .  T
C4633      N4635   1.157       .  T
C4634      N4636   1.158   1_565  T
C4639      C4640   1.412       .  A
C4639      C4644   1.418       .  A
C4640      C4641   1.410       .  A
C4640      C4645   1.450       .  S
C4641      C4642   1.412       .  A
C4641      C4648   1.452       .  S
C4642      C4643   1.405       .  A
C4643      C4644   1.409       .  A
C4644      C4647   1.451       .  S
C4645      N4652   1.157       .  T
C4646      N4651   1.157       .  T
C4647      N4649   1.157       .  T
C4648      N4650   1.157       .  T
C4653      C4654   1.416       .  A
C4653      C4658   1.408       .  A
C4654      C4655   1.403       .  A
C4655      C4656   1.406       .  A
C4655      C4662   1.451       .  S
C4656      C4657   1.414       .  A
C4657      C4658   1.412       .  A
C4657      C4660   1.450       .  S
C4658      C4661   1.449       .  S
C4659      N4666   1.157   1_455  T
C4660      N4665   1.157       .  T
C4661      N4663   1.157       .  T
C4662      N4664   1.157       .  T
C4667      C4668   1.410       .  A
C4668      C4669   1.417       .  A
C4668      C4673   1.453       .  S
C4669      C4676   1.453       .  S
C4670      C4671   1.415       .  A
C4671      C4672   1.419       .  A
C4671      C4674   1.451       .  S
C4672      C4675   1.450       .  S
C4673      N4680   1.158       .  T
C4674      N4679   1.157       .  T
C4675      N4677   1.157       .  T
C4676      N4678   1.157       .  T
