geometry optimzed in LAMMPS
_audit_creation_date              2020-12-01 
_audit_creation_method            'lammps2cif' 
_symmetry_space_group_name_H-M    'P1' 
_symmetry_Int_Tables_number       1 
_symmetry_cell_setting            triclinic 
loop_ 
_symmetry_equiv_pos_as_xyz 
  x,y,z 
_cell_length_a                    49.00469965 
_cell_length_b                    49.03383997716307 
_cell_length_c                    28.9694304895516 
_cell_angle_alpha                 90.16981179439203 
_cell_angle_beta                  89.97366545506998 
_cell_angle_gamma                 90.18122512825465 
loop_ 
_atom_site_label 
_atom_site_type_symbol 
_atom_site_fract_x 
_atom_site_fract_y 
_atom_site_fract_z 
_atom_site_charge 
O1          O  0.69683573  0.44729446  0.61255331    -0.82300
C2          C  0.68975345  0.47256649  0.79739960     0.97000
O3          O  0.70643251  0.47518272  0.76469622    -0.71400
O4          O  0.72945862  0.45448666  0.69217088    -0.75000
Al5        Al  0.70052720  0.48051980  0.70129263     1.49000
C6          C  0.72969386  0.42865675  0.69463630     0.92300
O7          O  0.65597871  0.40199826  0.69229218    -0.81200
O8          O  0.61910731  0.44646971  0.68979256    -0.74800
Al9        Al  0.67622715  0.42842975  0.65819958     1.90100
O10         O  0.64923899  0.42171597  0.75851542    -0.73900
O11         O  0.63641517  0.49343406  0.71985684    -0.73700
O12         O  0.66472840  0.46896855  0.78946730    -0.79400
O13         O  0.67720985  0.51129279  0.71176417    -0.77600
O14         O  0.67382723  0.45572546  0.69870293    -1.13700
O15         O  0.69840523  0.48925857  0.63738221    -0.72900
C16         C  0.70121808  0.47219505  0.60521160     0.97800
C17         C  0.64827271  0.40077594  0.73364335     0.94200
Al18       Al  0.64492692  0.45758384  0.73615124     1.55600
O19         O  0.70833363  0.41493589  0.68640713    -0.77500
C20         C  0.65170719  0.51386261  0.71571410     0.98400
C21         C  0.62133139  0.44303694  0.64663668     0.93200
O22         O  0.64434815  0.44000229  0.62761655    -0.82900
O23         O  0.82990822  0.43068135  0.13772205    -0.82300
C24         C  0.79041261  0.48174255  0.29920000     0.97000
O25         O  0.81531457  0.47820764  0.28918916    -0.71400
O26         O  0.83243129  0.42825111  0.27144756    -0.75000
Al27       Al  0.83344693  0.46140935  0.23714251     1.49000
C28         C  0.83040870  0.40470542  0.25419290     0.92300
O29         O  0.76842326  0.41244396  0.20770647    -0.81200
O30         O  0.77523200  0.48121758  0.14005747    -0.74800
Al31       Al  0.79930274  0.42333097  0.17420207     1.90100
O32         O  0.74641559  0.45128928  0.20544981    -0.73900
O33         O  0.79764006  0.51084002  0.20525570    -0.73700
O34         O  0.77209202  0.47894738  0.26924084    -0.79400
O35         O  0.83931809  0.49496172  0.20703640    -0.77600
O36         O  0.80273905  0.45442877  0.20574996    -1.13700
O37         O  0.85771192  0.44597218  0.19154776    -0.72900
C38         C  0.85359069  0.43628103  0.15162592     0.97800
C39         C  0.74668746  0.42576019  0.21222240     0.94200
Al40       Al  0.77528511  0.47847368  0.20507771     1.55600
O41         O  0.82005988  0.40144985  0.21486785    -0.77500
C42         C  0.82301031  0.51432673  0.20084408     0.98400
C43         C  0.77264491  0.46162296  0.11228722     0.93200
O44         O  0.77771935  0.43761945  0.12500213    -0.82900
O45         O  0.94796109  0.18755985  0.42815845    -0.82300
C46         C  0.97738209  0.18514556  0.23964050     0.97000
O47         O  0.98948800  0.19780378  0.27159822    -0.71400
O48         O  0.95537516  0.22920008  0.31618703    -0.75000
Al49       Al  0.98158759  0.20297101  0.33534851     1.49000
C50         C  0.93265566  0.23434435  0.33471476     0.92300
O51         O  0.90275686  0.17233556  0.32589134    -0.81200
O52         O  0.96262408  0.12342836  0.35948906    -0.74800
Al53       Al  0.92760011  0.17966859  0.37451622     1.90100
O54         O  0.92437625  0.13779900  0.29566810    -0.73900
O55         O  0.00065969  0.14599608  0.30840790    -0.73700
O56         O  0.96188730  0.16523181  0.24908794    -0.79400
O57         O  0.01095040  0.17992018  0.35443987    -0.77600
O58         O  0.95699297  0.17620567  0.33875350    -1.13700
O59         O  0.97872490  0.21424705  0.39770056    -0.72900
C60         C  0.96630030  0.20533845  0.43261432     0.97800
C61         C  0.90272027  0.15111641  0.30136724     0.94200
Al62       Al  0.96196904  0.14576187  0.30584990     1.55600
O63         O  0.92184198  0.21750138  0.36214702    -0.77500
C64         C  0.01758008  0.15821796  0.33386368     0.98400
C65         C  0.94455775  0.12328295  0.39055016     0.93200
O66         O  0.92762413  0.14256671  0.39442944    -0.82900
O67         O  0.93872934  0.33432267  0.91178015    -0.82300
C68         C  0.97640937  0.29494821  0.74075754     0.97000
O69         O  0.97394211  0.31977203  0.75153636    -0.71400
O70         O  0.92586146  0.33797625  0.77776289    -0.75000
Al71       Al  0.96100450  0.33770863  0.80627249     1.49000
C72         C  0.90372087  0.33845669  0.79986863     0.92300
O73         O  0.91001865  0.27642759  0.84099634    -0.81200
O74         O  0.98245787  0.27629952  0.89868193    -0.74800
Al75       Al  0.92547840  0.30550701  0.87494848     1.90100
O76         O  0.94752883  0.25201844  0.83486266    -0.73900
O77         O  0.01005344  0.29908406  0.83237172    -0.73700
O78         O  0.97438975  0.27655991  0.77048720    -0.79400
O79         O  0.99641557  0.34160571  0.83043772    -0.77600
O80         O  0.95451771  0.30721072  0.83815528    -1.13700
O81         O  0.94959342  0.36211353  0.85505719    -0.72900
C82         C  0.94444882  0.35791602  0.89729829     0.97800
C83         C  0.92181032  0.25422045  0.83166331     0.94200
Al84       Al  0.97671632  0.27850132  0.83432265     1.55600
O85         O  0.90283241  0.32950406  0.84053746    -0.77500
C86         C  0.01496860  0.32426184  0.83618859     0.98400
C87         C  0.96407344  0.27337070  0.92835180     0.93200
O88         O  0.94018906  0.28104352  0.91930247    -0.82900
O89         O  0.65359462  0.03267843  0.13032155    -0.82300
C90         C  0.69286083  0.99391842  0.30148590     0.97000
O91         O  0.66833309  0.99894203  0.29165504    -0.71400
O92         O  0.65048093  0.04613338  0.26326647    -0.75000
Al93       Al  0.65035313  0.01054940  0.23652392     1.49000
C94         C  0.65028230  0.06783152  0.24026921     0.92300
O95         O  0.71310552  0.05861096  0.20012846    -0.81200
O96         O  0.71176577  0.98714760  0.14162661    -0.74800
Al97       Al  0.68344099  0.04446278  0.16656337     1.90100
O98         O  0.73625550  0.02040426  0.20866555    -0.73900
O99         O  0.68655470  0.95939141  0.20473383    -0.73700
O100        O  0.71060233  0.99211142  0.27051798    -0.79400
O101        O  0.64510160  0.97495143  0.21488433    -0.77600
O102        O  0.68087997  0.01542967  0.20342039    -1.13700
O103        O  0.62632394  0.02155319  0.18757051    -0.72900
C104        C  0.62983783  0.02819309  0.14577809     0.97800
C105        C  0.73473079  0.04626307  0.21105015     0.94200
Al106      Al  0.70878157  0.99181826  0.20623839     1.55600
O107        O  0.66052062  0.06803314  0.20056297    -0.77500
C108        C  0.66102439  0.95585532  0.20467335     0.98400
C109        C  0.71451604  0.00562422  0.11220582     0.93200
O110        O  0.70718420  0.02947711  0.12149746    -0.82900
O111        O  0.79311484  0.03384529  0.61995467    -0.82300
C112        C  0.80340278  0.00017597  0.80539344     0.97000
O113        O  0.79158447  0.98744695  0.77315069    -0.71400
O114        O  0.75570036  0.02002356  0.73555272    -0.75000
Al115      Al  0.78349356  0.99691437  0.71114117     1.49000
C116        C  0.74804047  0.04290734  0.72060057     0.92300
O117        O  0.80578684  0.07833934  0.72443189    -0.81200
O118        O  0.85995805  0.02497187  0.68353580    -0.74800
Al119      Al  0.80003541  0.05384957  0.67461577     1.90100
O120        O  0.84299871  0.06002231  0.75114876    -0.73900
O121        O  0.84263295  0.98352218  0.73274564    -0.73700
O122        O  0.82062845  0.01864948  0.79633090    -0.79400
O123        O  0.80893477  0.97060184  0.68813943    -0.77600
O124        O  0.80748216  0.02426646  0.70778300    -1.13700
O125        O  0.76981070  0.00019309  0.64971812    -0.72900
C126        C  0.77721956  0.01386367  0.61509694     0.97800
C127        C  0.82729160  0.08020097  0.74789549     0.94200
Al128      Al  0.83889458  0.02198383  0.73844980     1.55600
O129        O  0.76223898  0.05526422  0.69075160    -0.77500
C130        C  0.83160385  0.96573263  0.70722880     0.98400
C131        C  0.85771072  0.04382267  0.65420205     0.93200
O132        O  0.83648447  0.05838848  0.65222393    -0.82900
O133        O  0.53996483  0.15806199  0.93039519    -0.82300
C134        C  0.50508555  0.17750615  0.74859064     0.97000
O135        O  0.51117892  0.15442609  0.76471104    -0.71400
O136        O  0.55704973  0.14066582  0.80228838    -0.75000
Al137      Al  0.52082028  0.14220898  0.82530052     1.49000
C138        C  0.57819471  0.14275993  0.82642069     0.92300
O139        O  0.56612972  0.20866529  0.84427738    -0.81200
O140        O  0.49326142  0.20947477  0.90215124    -0.74800
Al141      Al  0.55229364  0.18303693  0.88617838     1.90100
O142        O  0.52696609  0.22976518  0.83139214    -0.73900
O143        O  0.46752499  0.17873153  0.84281354    -0.73700
O144        O  0.50114377  0.19767400  0.77451226    -0.79400
O145        O  0.48453711  0.13761464  0.84355824    -0.77600
O146        O  0.52392439  0.17555590  0.84949185    -1.13700
O147        O  0.52994467  0.12445837  0.88265527    -0.72900
C148        C  0.53419880  0.13330011  0.92339395     0.97800
C149        C  0.55291694  0.22897296  0.82961063     0.94200
Al150      Al  0.49930256  0.20165444  0.83854521     1.55600
O151        O  0.57755301  0.15702100  0.86238112    -0.77500
C152        C  0.46459152  0.15335619  0.84773297     0.98400
C153        C  0.51158521  0.21703798  0.92964089     0.93200
O154        O  0.53600255  0.21109843  0.92173300    -0.82900
O155        O  0.53739951  0.27982788  0.43327863    -0.82300
C156        C  0.50295540  0.29095551  0.24895995     0.97000
O157        O  0.49105911  0.27679374  0.27942022    -0.71400
O158        O  0.52564264  0.24356225  0.31839180    -0.75000
Al159      Al  0.50003946  0.26918811  0.34227368     1.49000
C160        C  0.54965251  0.23877382  0.33182014     0.92300
O161        O  0.57860713  0.30158077  0.32930881    -0.81200
O162        O  0.51900951  0.34727962  0.37535445    -0.74800
Al163      Al  0.55546434  0.29116485  0.37889528     1.90100
O164        O  0.55589351  0.33720269  0.30715676    -0.73900
O165        O  0.47997181  0.32684151  0.32265444    -0.73700
O166        O  0.51821835  0.31073339  0.25991124    -0.79400
O167        O  0.47081458  0.29151419  0.36582626    -0.77600
O168        O  0.52478875  0.29586493  0.34693261    -1.13700
O169        O  0.50436791  0.25555206  0.40327411    -0.72900
C170        C  0.51863161  0.26246318  0.43756044     0.97800
C171        C  0.57766408  0.32372867  0.30765216     0.94200
Al172      Al  0.51873731  0.32769549  0.31871861     1.55600
O173        O  0.56155286  0.25467774  0.35953197    -0.77500
C174        C  0.46347441  0.31356267  0.34724301     0.98400
C175        C  0.53817449  0.34623601  0.40446939     0.93200
O176        O  0.55516066  0.32685252  0.40434089    -0.82900
O177        O  0.14802306  0.93737860  0.42224778    -0.82300
C178        C  0.18817267  0.97706025  0.25396996     0.97000
O179        O  0.16334138  0.97250015  0.26280457    -0.71400
O180        O  0.14734538  0.92394492  0.28814036    -0.75000
Al181      Al  0.14479822  0.95902684  0.31639243     1.49000
C182        C  0.14696064  0.90187267  0.31015630     0.92300
O183        O  0.20734548  0.91199322  0.35231102    -0.81200
O184        O  0.20271146  0.98350954  0.41461357    -0.74800
Al185      Al  0.17747024  0.92546985  0.38636450     1.90100
O186        O  0.23004230  0.95099086  0.34982104    -0.73900
O187        O  0.17913434  0.01074248  0.34875590    -0.73700
O188        O  0.20547648  0.97826367  0.28571959    -0.79400
O189        O  0.13797671  0.99403673  0.33927967    -0.77600
O190        O  0.17478794  0.95470191  0.35041946    -1.13700
O191        O  0.12025122  0.94667732  0.36444202    -0.72900
C192        C  0.12439272  0.94236920  0.40706436     0.97800
C193        C  0.22905553  0.92519983  0.34448010     0.94200
Al194      Al  0.20201009  0.97888857  0.34970173     1.55600
O195        O  0.15432206  0.90179223  0.35164883    -0.77500
C196        C  0.15354012  0.01376311  0.34807447     0.98400
C197        C  0.20692717  0.96462223  0.44280784     0.93200
O198        O  0.20131464  0.94045242  0.43185038    -0.82900
O199        O  0.26326337  0.94852982  0.92890813    -0.82300
C200        C  0.29209701  0.97582336  0.75192141     0.97000
O201        O  0.27178520  0.97686599  0.77830306    -0.71400
O202        O  0.24090134  0.95494198  0.84118702    -0.75000
Al203      Al  0.27000744  0.98207240  0.84192294     1.49000
C204        C  0.24138303  0.92900443  0.83995285     0.92300
O205        O  0.31430669  0.90490806  0.86527772    -0.81200
O206        O  0.34885364  0.94985085  0.88214846    -0.74800
Al207      Al  0.28965756  0.93056685  0.89178070     1.90100
O208        O  0.32873797  0.92496231  0.80314869    -0.73900
O209        O  0.33464148  0.99683730  0.84732943    -0.73700
O210        O  0.31591371  0.97237657  0.76766176    -0.79400
O211        O  0.29352281  0.01364308  0.83899538    -0.77600
O212        O  0.29634991  0.95800644  0.85329999    -1.13700
O213        O  0.26475421  0.99070764  0.90525517    -0.72900
C214        C  0.25775493  0.97330956  0.93477162     0.97800
C215        C  0.32692656  0.90388124  0.82757249     0.94200
Al216      Al  0.32920077  0.96087631  0.82723918     1.55600
O217        O  0.26228644  0.91620456  0.85311127    -0.77500
C218        C  0.31885145  0.01687914  0.84505485     0.98400
C219        C  0.34147201  0.94597079  0.92364611     0.93200
O220        O  0.31650323  0.94298941  0.93345387    -0.82900
O221        O  0.43775900  0.65672117  0.64004637    -0.82300
C222        C  0.47778998  0.68673332  0.81543219     0.97000
O223        O  0.47364239  0.66256391  0.80147454    -0.71400
O224        O  0.42379104  0.64928532  0.77292537    -0.75000
Al225      Al  0.45891977  0.64762266  0.74458126     1.49000
C226        C  0.40199895  0.65084406  0.74999095     0.92300
O227        O  0.41438003  0.71415598  0.71538737    -0.81200
O228        O  0.48718020  0.71020644  0.65867132    -0.74800
Al229      Al  0.42720218  0.68513888  0.67914054     1.90100
O230        O  0.45371549  0.73537207  0.72355250    -0.73900
O231        O  0.51166528  0.68235180  0.72416314    -0.73700
O232        O  0.47700170  0.70627490  0.78754492    -0.79400
O233        O  0.49360106  0.64144277  0.71969137    -0.77600
O234        O  0.45559120  0.67968571  0.71588141    -1.13700
O235        O  0.44497068  0.62589702  0.69338419    -0.72900
C236        C  0.43991043  0.63210444  0.65177896     0.97800
C237        C  0.42780200  0.73540241  0.72486032     0.94200
Al238      Al  0.48032074  0.70621734  0.72304398     1.55600
O239        O  0.40221641  0.66219354  0.71104831    -0.77500
C240        C  0.51403151  0.65694125  0.71763927     0.98400
C241        C  0.46917841  0.71485356  0.62880012     0.93200
O242        O  0.44457146  0.70928565  0.63687619    -0.82900
O243        O  0.44760588  0.78409174  0.13281442    -0.82300
C244        C  0.47603587  0.80131416  0.31893571     0.97000
O245        O  0.48877731  0.78604396  0.29094396    -0.71400
O246        O  0.45472853  0.75143040  0.25200565    -0.75000
Al247      Al  0.48141596  0.77588649  0.22801892     1.49000
C248        C  0.43182195  0.74564207  0.23463402     0.92300
O249        O  0.40329156  0.80916466  0.23089436    -0.81200
O250        O  0.46504356  0.85295023  0.18501815    -0.74800
Al251      Al  0.42785959  0.79711242  0.18423300     1.90100
O252        O  0.42571367  0.84578455  0.25079380    -0.73900
O253        O  0.50190351  0.83402160  0.24315101    -0.73700
O254        O  0.46171850  0.82092665  0.30444497    -0.79400
O255        O  0.51142912  0.79678607  0.20480714    -0.77600
O256        O  0.45743143  0.80267669  0.21850176    -1.13700
O257        O  0.47856073  0.75968259  0.16774542    -0.72900
C258        C  0.46520502  0.76549862  0.13187059     0.97800
C259        C  0.40366087  0.83261872  0.24852481     0.94200
Al260      Al  0.46315707  0.83553840  0.24381359     1.55600
O261        O  0.42087075  0.76123963  0.20559396    -0.77500
C262        C  0.51854793  0.81973321  0.22053303     0.98400
C263        C  0.44702782  0.85082353  0.15398208     0.93200
O264        O  0.42942700  0.83188221  0.15527135    -0.82900
O265        O  0.03952769  0.70248262  0.11924918    -0.82300
C266        C  0.00472681  0.68400946  0.29546164     0.97000
O267        O  0.00273113  0.70213516  0.26504524    -0.71400
O268        O  0.02758871  0.72941638  0.20065092    -0.75000
Al269      Al  0.00119617  0.70003970  0.20081807     1.49000
C270        C  0.05325797  0.72995711  0.20628980     0.92300
O271        O  0.08041261  0.65631707  0.19639279    -0.81200
O272        O  0.03347803  0.62008068  0.17750491    -0.74800
Al273      Al  0.05578344  0.67877212  0.16307668     1.90100
O274        O  0.05727438  0.64308148  0.25606333    -0.73900
O275        O  0.98648394  0.63592865  0.20784397    -0.73700
O276        O  0.00966995  0.65949794  0.28472798    -0.79400
O277        O  0.96967702  0.67692493  0.20258479    -0.77600
O278        O  0.02620364  0.67361647  0.19800186    -1.13700
O279        O  0.99634702  0.70107475  0.13590769    -0.72900
C280        C  0.01517253  0.70662461  0.10789122     0.97800
C281        C  0.07965297  0.64527191  0.23535270     0.94200
Al282      Al  0.02206320  0.64241289  0.22885293     1.55600
O283        O  0.06742634  0.70878179  0.19949363    -0.77500
C284        C  0.96646943  0.65147726  0.20274256     0.98400
C285        C  0.03926743  0.62565296  0.13582080     0.93200
O286        O  0.04621912  0.64950507  0.12422970    -0.82900
O287        O  0.04588655  0.81754442  0.63128914    -0.82300
C288        C  0.99623553  0.78637819  0.79777036     0.97000
O289        O  0.00002168  0.81064866  0.78456704    -0.71400
O290        O  0.05122661  0.82371456  0.76585191    -0.75000
Al291      Al  0.01804772  0.82575433  0.73156320     1.49000
C292        C  0.07425888  0.82165901  0.74677237     0.92300
O293        O  0.06330103  0.75854856  0.70716897    -0.81200
O294        O  0.99338432  0.76549802  0.64145497    -0.74800
Al295      Al  0.05307444  0.78824496  0.67053525     1.90100
O296        O  0.02354455  0.73774993  0.70735187    -0.73900
O297        O  0.96645310  0.79162696  0.70605833    -0.73700
O298        O  0.99884182  0.76665092  0.77037207    -0.79400
O299        O  0.98514011  0.83217199  0.70071711    -0.77600
O300        O  0.02289981  0.79387855  0.70293211    -1.13700
O301        O  0.03493053  0.84756879  0.68438112    -0.72900
C302        C  0.04290336  0.84189706  0.64396545     0.97800
C303        C  0.04914302  0.73748883  0.71378867     0.94200
Al304      Al  0.99765944  0.76758735  0.70607000     1.55600
O305        O  0.07636958  0.81004185  0.70805666    -0.77500
C306        C  0.96460286  0.81686773  0.69793260     0.98400
C307        C  0.01230497  0.76153384  0.61295764     0.93200
O308        O  0.03688564  0.76547437  0.62413136    -0.82900
O309        O  0.32686228  0.53313229  0.42307393    -0.82300
C310        C  0.29659818  0.49697822  0.24507051     0.97000
O311        O  0.32037813  0.50362377  0.25754878    -0.71400
O312        O  0.33591486  0.55028133  0.29294070    -0.75000
Al313      Al  0.33592644  0.51383163  0.31586564     1.49000
C314        C  0.33385617  0.57133547  0.31753039     0.92300
O315        O  0.26923065  0.55761225  0.34784658    -0.81200
O316        O  0.27202601  0.48522165  0.40280250    -0.74800
Al317      Al  0.29832265  0.54438766  0.38402415     1.90100
O318        O  0.24866696  0.51816382  0.33527768    -0.73900
O319        O  0.30115060  0.46001899  0.34122542    -0.73700
O320        O  0.27819072  0.49256542  0.27425185    -0.79400
O321        O  0.34194433  0.47760031  0.33377445    -0.77600
O322        O  0.30391146  0.51630455  0.34582559    -1.13700
O323        O  0.35729387  0.52375709  0.36913233    -0.72900
C324        C  0.35117327  0.52829919  0.41100589     0.97800
C325        C  0.24836157  0.54410217  0.33587581     0.94200
Al326      Al  0.27745175  0.49119007  0.33875943     1.55600
O327        O  0.32132335  0.56993880  0.35502027    -0.77500
C328        C  0.32676736  0.45748171  0.34179460     0.98400
C329        C  0.26695654  0.50331023  0.43219622     0.93200
O330        O  0.27373373  0.52753047  0.42498873    -0.82900
O331        O  0.19110573  0.52196321  0.93030012    -0.82300
C332        C  0.18099400  0.49551935  0.74135945     0.97000
O333        O  0.19687653  0.48478709  0.77036460    -0.71400
O334        O  0.22813183  0.52067397  0.81249780    -0.75000
Al335      Al  0.20480815  0.49192768  0.83366993     1.49000
C336        C  0.23237826  0.54339732  0.83198476     0.92300
O337        O  0.16901630  0.56829279  0.83369700    -0.81200
O338        O  0.12498601  0.50507063  0.87049890    -0.74800
Al339      Al  0.17989049  0.54304930  0.87968048     1.90100
O340        O  0.13425709  0.54500556  0.80722324    -0.73900
O341        O  0.14764347  0.46951634  0.81429934    -0.73700
O342        O  0.16113261  0.50999155  0.75450019    -0.79400
O343        O  0.18474256  0.46024435  0.85339628    -0.77600
O344        O  0.17653754  0.51429505  0.84256371    -1.13700
O345        O  0.21920189  0.49448942  0.89512788    -0.72900
C346        C  0.21037172  0.50511096  0.93188021     0.97800
C347        C  0.14668549  0.56730678  0.81235698     0.94200
Al348      Al  0.14480602  0.50792410  0.81397493     1.55600
O349        O  0.21644559  0.55162971  0.86310003    -0.77500
C350        C  0.16227426  0.45279843  0.83591101     0.98400
C351        C  0.12551632  0.52255156  0.90257845     0.93200
O352        O  0.14410830  0.54038901  0.90467164    -0.82900
C353        C  0.21041629  0.46786237  0.62982998    -0.11900
C354        C  0.20734919  0.49049635  0.60114290     0.14600
C355        C  0.19186368  0.51302729  0.61636679     0.01500
C356        C  0.18176751  0.51339910  0.66151602    -0.16300
C357        C  0.18671270  0.49164192  0.69171048    -0.11100
C358        C  0.20000561  0.46800433  0.67468213     0.08300
C359        C  0.22368709  0.49166391  0.55855862     0.09300
S360        S  0.18622436  0.54277669  0.58116285    -0.25400
H361        H  0.17137415  0.53147771  0.67389098     0.19600
S362        S  0.20490635  0.43753586  0.70835397    -0.31100
H363        H  0.22195719  0.45040404  0.61780409     0.09900
C364        C  0.24860840  0.50600788  0.55786949     0.03100
C365        C  0.26276606  0.50863269  0.51624641    -0.13400
C366        C  0.25264276  0.49697500  0.47541318    -0.09100
C367        C  0.22792260  0.48209171  0.47643880     0.06500
C368        C  0.21392013  0.47916145  0.51825098    -0.14100
S369        S  0.26223629  0.52116960  0.60999340    -0.31100
H370        H  0.28157772  0.52023405  0.51522118     0.10800
S371        S  0.21204219  0.46862901  0.42511924    -0.28200
H372        H  0.19466019  0.46825781  0.51897784     0.08000
H373        H  0.18053477  0.44031984  0.73329696     0.26400
H374        H  0.28491878  0.53393760  0.58944773     0.21200
H375        H  0.21679089  0.49217506  0.39866462     0.26500
H376        H  0.18830636  0.52951444  0.53825600     0.15400
C377        C  0.25653641  0.47651324  0.02653715    -0.11900
C378        C  0.25114547  0.49485609  0.06259232     0.14600
C379        C  0.23111389  0.51509699  0.05648214     0.01500
C380        C  0.21809728  0.51755068  0.01388879    -0.16300
C381        C  0.22354893  0.49949606  0.97715793    -0.11100
C382        C  0.24253579  0.47813954  0.98443223     0.08300
C383        C  0.26643262  0.49260620  0.10645418     0.09300
S384        S  0.22121786  0.53854379  0.10162344    -0.25400
H385        H  0.20367332  0.53402606  0.00952422     0.19600
S386        S  0.24946569  0.45189598  0.94243186    -0.31100
H387        H  0.27149116  0.46056429  0.03153958     0.09900
C388        C  0.26050825  0.47178206  0.13830554     0.03100
C389        C  0.27202645  0.47293442  0.18254495    -0.13400
C390        C  0.28929007  0.49453782  0.19573857    -0.09100
C391        C  0.29617945  0.51469105  0.16291425     0.06500
C392        C  0.28495434  0.51331396  0.11851895    -0.14100
S393        S  0.23665986  0.44490935  0.12386385    -0.31100
H394        H  0.26674519  0.45749372  0.20769048     0.10800
S395        S  0.31679266  0.54404490  0.17682050    -0.28200
H396        H  0.28936179  0.52941876  0.09404830     0.08000
H397        H  0.22183267  0.44789785  0.93110967     0.26400
H398        H  0.23831709  0.43084700  0.16601219     0.21200
H399        H  0.30286691  0.54969766  0.21821770     0.26500
H400        H  0.22529069  0.52047611  0.13855268     0.15400
C401        C  0.13378990  0.63792398  0.76347826    -0.11900
C402        C  0.10608552  0.64124393  0.77463790     0.14600
C403        C  0.09206485  0.62002124  0.79742409     0.01500
C404        C  0.10572904  0.59584991  0.80750008    -0.16300
C405        C  0.13344965  0.59253957  0.79674324    -0.11100
C406        C  0.14761854  0.61379871  0.77425292     0.08300
C407        C  0.09175864  0.66615124  0.75938615     0.09300
S408        S  0.05695840  0.62278406  0.81562152    -0.25400
H409        H  0.09482077  0.57977789  0.82545658     0.19600
S410        S  0.18275465  0.61088775  0.75646086    -0.31100
H411        H  0.14451895  0.65401799  0.74532384     0.09900
C412        C  0.09807847  0.69200492  0.77790927     0.03100
C413        C  0.08375820  0.71490734  0.76235052    -0.13400
C414        C  0.06311024  0.71247156  0.72890386    -0.09100
C415        C  0.05707286  0.68655981  0.71007088     0.06500
C416        C  0.07128759  0.66371499  0.72575821    -0.14100
S417        S  0.12361243  0.69571980  0.82249715    -0.31100
H418        H  0.08839111  0.73481171  0.77669432     0.10800
S419        S  0.03258062  0.68146752  0.66440460    -0.28200
H420        H  0.06667256  0.64386198  0.71112318     0.08000
H421        H  0.18199036  0.58261051  0.74816509     0.26400
H422        H  0.12125668  0.72412974  0.82801045     0.21200
H423        H  0.03947981  0.70539581  0.64033460     0.26500
H424        H  0.05756732  0.65106425  0.82380013     0.15400
C425        C  0.19236255  0.59761038  0.32919808    -0.11900
C426        C  0.17573314  0.58688098  0.29428289     0.14600
C427        C  0.18276720  0.56173023  0.27352332     0.01500
C428        C  0.20622424  0.54794710  0.28827717    -0.16300
C429        C  0.22309319  0.55882005  0.32302636    -0.11100
C430        C  0.21554083  0.58372255  0.34435946     0.08300
C431        C  0.15098051  0.60233478  0.28133290     0.09300
S432        S  0.16282914  0.54613571  0.22814711    -0.25400
H433        H  0.21165086  0.52885132  0.27178846     0.19600
S434        S  0.23341992  0.59807552  0.39312033    -0.31100
H435        H  0.18675151  0.61664337  0.34573425     0.09900
C436        C  0.12485063  0.59455588  0.29682110     0.03100
C437        C  0.10199987  0.60980521  0.28335539    -0.13400
C438        C  0.10473178  0.63288830  0.25493459    -0.09100
C439        C  0.13128476  0.64151382  0.24199417     0.06500
C440        C  0.15395225  0.62598865  0.25480371    -0.14100
S441        S  0.12063464  0.56511565  0.33348557    -0.31100
H442        H  0.08182706  0.60310422  0.29365982     0.10800
S443        S  0.13782959  0.67247202  0.21038143    -0.28200
H444        H  0.17417294  0.63247461  0.24420263     0.08000
H445        H  0.23707496  0.57284088  0.41525544     0.26400
H446        H  0.09246658  0.56819897  0.34118063     0.21200
H447        H  0.11734621  0.68753786  0.23290891     0.26500
H448        H  0.15154192  0.57027870  0.21062741     0.15400
C449        C  0.09324363  0.53605303  0.01688284    -0.11900
C450        C  0.06701961  0.54427756  0.00355109     0.14600
C451        C  0.05841667  0.53929012  0.95760695     0.01500
C452        C  0.07724257  0.52936727  0.92513650    -0.16300
C453        C  0.10414714  0.52348377  0.93815749    -0.11100
C454        C  0.11146062  0.52502882  0.98511478     0.08300
C455        C  0.05203180  0.56248272  0.03583234     0.09300
S456        S  0.02427393  0.54641240  0.93798852    -0.25400
H457        H  0.07139430  0.52795562  0.88913794     0.19600
S458        S  0.14436911  0.51461967  0.00619355    -0.31100
H459        H  0.10027161  0.53970108  0.05181841     0.09900
C460        C  0.04864750  0.55580919  0.08287559     0.03100
C461        C  0.04287074  0.57654414  0.11486177    -0.13400
C462        C  0.03939450  0.60367761  0.10053699    -0.09100
C463        C  0.03858710  0.60931169  0.05263511     0.06500
C464        C  0.04586423  0.58899401  0.02112726    -0.14100
S465        S  0.05259064  0.52106904  0.10237827    -0.31100
H466        H  0.04240145  0.57177517  0.15131085     0.10800
S467        S  0.02863122  0.64186138  0.02924110    -0.28200
H468        H  0.04788788  0.59430310  0.98500715     0.08000
H469        H  0.14878119  0.49502588  0.97143882     0.26400
H470        H  0.04631095  0.52593353  0.14905991     0.21200
H471        H  0.00882474  0.64709809  0.06334181     0.26500
H472        H  0.01199289  0.54445661  0.98175781     0.15400
C473        C  0.01213322  0.75175715  0.48364629    -0.11900
C474        C  0.99765055  0.72718442  0.47956517     0.14600
C475        C  0.98624094  0.71502954  0.51923247     0.01500
C476        C  0.99064885  0.72707250  0.56243898    -0.16300
C477        C  0.00586275  0.75122404  0.56660816    -0.11100
C478        C  0.01591113  0.76411743  0.52657927     0.08300
C479        C  0.99649922  0.71407322  0.43378986     0.09300
S480        S  0.96635462  0.68406064  0.51693240    -0.25400
H481        H  0.98268325  0.71723278  0.59310651     0.19600
S482        S  0.03278367  0.79674545  0.52802671    -0.31100
H483        H  0.02060083  0.76131918  0.45309918     0.09900
C484        C  0.98142052  0.72560549  0.39752543     0.03100
C485        C  0.98365173  0.71450042  0.35318836    -0.13400
C486        C  0.00106529  0.69236466  0.34409065    -0.09100
C487        C  0.01569084  0.68050434  0.38096559     0.06500
C488        C  0.01294077  0.69125799  0.42546125    -0.14100
S489        S  0.95948312  0.75455949  0.40768877    -0.31100
H490        H  0.97215283  0.72347044  0.32520030     0.10800
S491        S  0.04008391  0.65353422  0.37300255    -0.28200
H492        H  0.02485493  0.68272813  0.45340093     0.08000
H493        H  0.01473592  0.80776736  0.56088644     0.26400
H494        H  0.95263239  0.75927091  0.36124323     0.21200
H495        H  0.05369292  0.66716561  0.33702471     0.26500
H496        H  0.95625187  0.68788039  0.47200230     0.15400
C497        C  0.97403599  0.74901588  0.90470219    -0.11900
C498        C  0.99013238  0.76222062  0.93789404     0.14600
C499        C  0.00432441  0.78633527  0.92607701     0.01500
C500        C  0.00416803  0.79523980  0.88037492    -0.16300
C501        C  0.98999380  0.78061855  0.84633422    -0.11100
C502        C  0.97342651  0.75823524  0.85923030     0.08300
C503        C  0.99568741  0.74780977  0.98141260     0.09300
S504        S  0.02456498  0.80543228  0.96699023    -0.25400
H505        H  0.01663128  0.81264438  0.87085630     0.19600
S506        S  0.95177699  0.74011286  0.81911279    -0.31100
H507        H  0.96293581  0.73063043  0.91375639     0.09900
C508        C  0.97535296  0.74292444  0.01461532     0.03100
C509        C  0.98213634  0.72882523  0.05498574    -0.13400
C510        C  0.00887082  0.71939786  0.06276993    -0.09100
C511        C  0.02902502  0.72363247  0.02817341     0.06500
C512        C  0.02204253  0.73777720  0.98814739    -0.14100
S513        S  0.94110395  0.75549779  0.00636328    -0.31100
H514        H  0.96660494  0.72567767  0.08102778     0.10800
S515        S  0.06370421  0.71125651  0.03322916    -0.28200
H516        H  0.03722024  0.74117667  0.96156360     0.08000
H517        H  0.94631300  0.76294836  0.79132684     0.26400
H518        H  0.92983878  0.74425312  0.04674982     0.21200
H519        H  0.07302904  0.71914236  0.98931372     0.26500
H520        H  0.00993264  0.79725103  0.00637981     0.15400
C521        C  0.36131594  0.64437481  0.31939990    -0.11900
C522        C  0.37233076  0.64665741  0.27511936     0.14600
C523        C  0.37058153  0.62427462  0.24447284     0.01500
C524        C  0.35774376  0.60014789  0.25889141    -0.16300
C525        C  0.34674830  0.59762948  0.30358813    -0.11100
C526        C  0.34918411  0.62020064  0.33438259     0.08300
C527        C  0.38731652  0.67200846  0.26388955     0.09300
S528        S  0.38460801  0.62504352  0.18690453    -0.25400
H529        H  0.35651467  0.58317669  0.23496679     0.19600
S530        S  0.33925892  0.61949176  0.39431864    -0.31100
H531        H  0.36326120  0.66133452  0.34329087     0.09900
C532        C  0.37355175  0.69684102  0.25709704     0.03100
C533        C  0.38866628  0.72060556  0.24853076    -0.13400
C534        C  0.41734464  0.72016925  0.24701592    -0.09100
C535        C  0.43103444  0.69516087  0.25414070     0.06500
C536        C  0.41589635  0.67149053  0.26291624    -0.14100
S537        S  0.33672043  0.69815635  0.25826606    -0.31100
H538        H  0.37808734  0.73964751  0.24274709     0.10800
S539        S  0.46753545  0.69167326  0.25007827    -0.28200
H540        H  0.42645115  0.65239761  0.26854556     0.08000
H541        H  0.35480423  0.59607517  0.40395971     0.26400
H542        H  0.33443213  0.72670414  0.25561086     0.21200
H543        H  0.46975447  0.70717783  0.20945817     0.26500
H544        H  0.38248042  0.65335549  0.18051354     0.15400
C545        C  0.34748661  0.61408129  0.82155715    -0.11900
C546        C  0.32897515  0.60658970  0.78672626     0.14600
C547        C  0.33372926  0.61524606  0.74109972     0.01500
C548        C  0.35728880  0.63012309  0.73096585    -0.16300
C549        C  0.37634750  0.63730187  0.76539047    -0.11100
C550        C  0.37093658  0.62952338  0.81155593     0.08300
C551        C  0.30471643  0.59000380  0.79882993     0.09300
S552        S  0.31093452  0.60743768  0.69387258    -0.25400
H553        H  0.36091749  0.63568862  0.69530358     0.19600
S554        S  0.39261815  0.63895985  0.85925791    -0.31100
H555        H  0.34357720  0.60787900  0.85683311     0.09900
C556        C  0.30309994  0.56201055  0.78820025     0.03100
C557        C  0.27913897  0.54745831  0.79852091    -0.13400
C558        C  0.25668466  0.56026301  0.81965758    -0.09100
C559        C  0.25843018  0.58863091  0.82984786     0.06500
C560        C  0.28248207  0.60296535  0.81955400    -0.14100
S561        S  0.33175258  0.54478069  0.76205392    -0.31100
H562        H  0.27807775  0.52588832  0.79069583     0.10800
S563        S  0.23014074  0.60748075  0.85424205    -0.28200
H564        H  0.28394408  0.62458689  0.82684768     0.08000
H565        H  0.39757656  0.66557483  0.84317538     0.26400
H566        H  0.32052832  0.51835443  0.76318261     0.21200
H567        H  0.24283679  0.63322178  0.85607187     0.26500
H568        H  0.28675787  0.60686162  0.71992772     0.15400
C569        C  0.43475036  0.56540852  0.58329750    -0.11900
C570        C  0.41636220  0.57336995  0.54885638     0.14600
C571        C  0.40609124  0.60013255  0.54859538     0.01500
C572        C  0.41492492  0.61863223  0.58195858    -0.16300
C573        C  0.43351147  0.61108870  0.61656240    -0.11100
C574        C  0.44357727  0.58402642  0.61710197     0.08300
C575        C  0.40646579  0.55361818  0.51421834     0.09300
S576        S  0.38063483  0.61050869  0.50696002    -0.25400
H577        H  0.40651934  0.63902244  0.58182407     0.19600
S578        S  0.46785071  0.57203858  0.65896864    -0.31100
H579        H  0.44234592  0.54467463  0.58363143     0.09900
C580        C  0.41368323  0.55645657  0.46739585     0.03100
C581        C  0.39677412  0.54503800  0.43344278    -0.13400
C582        C  0.37293849  0.53087302  0.44581959    -0.09100
C583        C  0.36827513  0.52455774  0.49272226     0.06500
C584        C  0.38489985  0.53632153  0.52656340    -0.14100
S585        S  0.44256594  0.57727145  0.45101915    -0.31100
H586        H  0.40066742  0.54946588  0.39745072     0.10800
S587        S  0.34064858  0.50288991  0.51151086    -0.28200
H588        H  0.37973355  0.53367013  0.56264535     0.08000
H589        H  0.48254175  0.59658344  0.66082407     0.26400
H590        H  0.44043011  0.57289990  0.40313936     0.21200
H591        H  0.33863854  0.48801758  0.47000557     0.26500
H592        H  0.37748355  0.63748904  0.52264360     0.15400
C593        C  0.46721833  0.73416269  0.50285546    -0.11900
C594        C  0.48023449  0.75963488  0.50366778     0.14600
C595        C  0.49214809  0.76907928  0.54517773     0.01500
C596        C  0.49019231  0.75304182  0.58513250    -0.16300
C597        C  0.47610706  0.72804782  0.58460810    -0.11100
C598        C  0.46527521  0.71823531  0.54256051     0.08300
C599        C  0.48122673  0.77507094  0.45988746     0.09300
S600        S  0.50929916  0.80156920  0.54974682    -0.25400
H601        H  0.49836870  0.76081225  0.61735836     0.19600
S602        S  0.44920220  0.68527859  0.53728844    -0.31100
H603        H  0.45860623  0.72656285  0.47082340     0.09900
C604        C  0.50419103  0.77384944  0.43080742     0.03100
C605        C  0.50237556  0.78407000  0.38574901    -0.13400
C606        C  0.47793283  0.79526339  0.36890224    -0.09100
C607        C  0.45532243  0.79760113  0.39907848     0.06500
C608        C  0.45733427  0.78770532  0.44424127    -0.14100
S609        S  0.53513760  0.75748496  0.44994054    -0.31100
H610        H  0.51975973  0.78232492  0.36285401     0.10800
S611        S  0.42257116  0.81039993  0.38102169    -0.28200
H612        H  0.43957599  0.78834787  0.46653843     0.08000
H613        H  0.46692333  0.67251898  0.56866447     0.26400
H614        H  0.55099107  0.76389438  0.41093807     0.21200
H615        H  0.42172872  0.79494948  0.34000686     0.26500
H616        H  0.49485710  0.81465333  0.51430754     0.15400
C617        C  0.49703470  0.72426367  0.92591959    -0.11900
C618        C  0.48352413  0.70862094  0.95918012     0.14600
C619        C  0.47133689  0.68364987  0.94583139     0.01500
C620        C  0.47090052  0.67610676  0.89901135    -0.16300
C621        C  0.48289955  0.69275338  0.86509621    -0.11100
C622        C  0.49743252  0.71639626  0.87952824     0.08300
C623        C  0.47922431  0.72096366  0.00547049     0.09300
S624        S  0.45538568  0.66104162  0.98680748    -0.25400
H625        H  0.46019251  0.65767341  0.88889476     0.19600
S626        S  0.51687145  0.73776029  0.84095244    -0.31100
H627        H  0.50674042  0.74325689  0.93602645     0.09900
C628        C  0.50090118  0.72608295  0.03637257     0.03100
C629        C  0.49584226  0.74031920  0.07775500    -0.13400
C630        C  0.46955084  0.74979400  0.08862227    -0.09100
C631        C  0.44777414  0.74372856  0.05802568     0.06500
C632        C  0.45292725  0.72978584  0.01684012    -0.14100
S633        S  0.53490268  0.71433148  0.02319415    -0.31100
H634        H  0.51248114  0.74454283  0.10130733     0.10800
S635        S  0.41269625  0.75214365  0.07001473    -0.28200
H636        H  0.43622883  0.72583942  0.99319682     0.08000
H637        H  0.52561846  0.71625829  0.81257309     0.26400
H638        H  0.54747628  0.72444380  0.06342206     0.21200
H639        H  0.41384754  0.74331253  0.11612353     0.26500
H640        H  0.47105701  0.66938982  0.02501540     0.15400
C641        C  0.12568963  0.85710820  0.82663299    -0.11900
C642        C  0.14419607  0.86731729  0.79373548     0.14600
C643        C  0.13979188  0.86165778  0.74665157     0.01500
C644        C  0.11763622  0.84565321  0.73347980    -0.16300
C645        C  0.09874550  0.83558548  0.76580305    -0.11100
C646        C  0.10299269  0.84130983  0.81318970     0.08300
C647        C  0.16865724  0.88288130  0.80856730     0.09300
S648        S  0.16127044  0.87494265  0.70127138    -0.25400
H649        H  0.11458096  0.84206855  0.69701429     0.19600
S650        S  0.08091563  0.82847471  0.85797194    -0.31100
H651        H  0.12915333  0.86119601  0.86293895     0.09900
C652        C  0.16681193  0.91004766  0.82414867     0.03100
C653        C  0.19081216  0.92501931  0.83245086    -0.13400
C654        C  0.21673313  0.91336469  0.82573886    -0.09100
C655        C  0.21833423  0.88634657  0.80846033     0.06500
C656        C  0.19442156  0.87131186  0.80122601    -0.14100
S657        S  0.13391813  0.92596744  0.83170103    -0.31100
H658        H  0.18931436  0.94586490  0.84444015     0.10800
S659        S  0.24997782  0.87046006  0.79153544    -0.28200
H660        H  0.19583704  0.85073475  0.78765139     0.08000
H661        H  0.07552538  0.80339837  0.83600769     0.26400
H662        H  0.14368387  0.95130522  0.84762666     0.21200
H663        H  0.26140325  0.89438213  0.77279852     0.26500
H664        H  0.16685022  0.90003018  0.72298322     0.15400
C665        C  0.37297537  0.78975667  0.73513348    -0.11900
C666        C  0.38511332  0.80785023  0.76651872     0.14600
C667        C  0.41161085  0.80241442  0.78321239     0.01500
C668        C  0.42509940  0.77874175  0.76896760    -0.16300
C669        C  0.41301271  0.76058170  0.73742917    -0.11100
C670        C  0.38681359  0.76665528  0.71952058     0.08300
C671        C  0.36950017  0.83205674  0.78148574     0.09300
S672        S  0.42934827  0.82492655  0.82244882    -0.25400
H673        H  0.44518388  0.77445007  0.78275407     0.19600
S674        S  0.37040432  0.74679213  0.67493522    -0.31100
H675        H  0.35274613  0.79402978  0.72192622     0.09900
C676        C  0.36329196  0.85321662  0.75055108     0.03100
C677        C  0.34873824  0.87591246  0.76634269    -0.13400
C678        C  0.34058964  0.87830270  0.81271857    -0.09100
C679        C  0.34736963  0.85708885  0.84398288     0.06500
C680        C  0.36125650  0.83405082  0.82762876    -0.14100
S681        S  0.37487125  0.85191922  0.69134373    -0.31100
H682        H  0.34405690  0.89208309  0.74243119     0.10800
S683        S  0.34012304  0.85928368  0.90518348    -0.28200
H684        H  0.36625409  0.81762077  0.85100463     0.08000
H685        H  0.39439971  0.74324560  0.64891392     0.26400
H686        H  0.36731313  0.87863364  0.67938196     0.21200
H687        H  0.35593099  0.83686700  0.91909693     0.26500
H688        H  0.41803282  0.84920748  0.80538425     0.15400
C689        C  0.40905734  0.93735997  0.98712649    -0.11900
C690        C  0.40046980  0.92101051  0.02400875     0.14600
C691        C  0.37231599  0.91686203  0.03148687     0.01500
C692        C  0.35355907  0.92712270  0.99993033    -0.16300
C693        C  0.36201896  0.94168032  0.96066060    -0.11100
C694        C  0.39010844  0.94815402  0.95582111     0.08300
C695        C  0.42064064  0.90500277  0.05023878     0.09300
S696        S  0.35905361  0.89625370  0.07803456    -0.25400
H697        H  0.33220436  0.92216183  0.00492768     0.19600
S698        S  0.40316059  0.96965541  0.91052503    -0.31100
H699        H  0.43066170  0.94090314  0.98176891     0.09900
C700        C  0.42414343  0.87717074  0.03997879     0.03100
C701        C  0.43604949  0.86018556  0.07290102    -0.13400
C702        C  0.44490297  0.87055111  0.11562594    -0.09100
C703        C  0.44531675  0.89911780  0.12254230     0.06500
C704        C  0.43263968  0.91607944  0.09008644    -0.14100
S705        S  0.41101222  0.86285548  0.98681976    -0.31100
H706        H  0.43650660  0.83837751  0.06687804     0.10800
S707        S  0.45892542  0.91472507  0.17390975    -0.28200
H708        H  0.43046758  0.93764310  0.09741421     0.08000
H709        H  0.38071721  0.98750359  0.91115209     0.26400
H710        H  0.42087785  0.83624581  0.99349086     0.21200
H711        H  0.48337698  0.89979487  0.17234622     0.26500
H712        H  0.38001426  0.90190781  0.10966892     0.15400
C713        C  0.12460618  0.82811252  0.29156479    -0.11900
C714        C  0.10916898  0.83032284  0.25123255     0.14600
C715        C  0.10784041  0.85559070  0.22819244     0.01500
C716        C  0.12119153  0.87833218  0.24722219    -0.16300
C717        C  0.13619149  0.87642570  0.28857925    -0.11100
C718        C  0.13845313  0.85050564  0.31004999     0.08300
C719        C  0.09415376  0.80579201  0.23584737     0.09300
S720        S  0.08879705  0.86051809  0.17556018    -0.25400
H721        H  0.11922927  0.89782665  0.23004164     0.19600
S722        S  0.15855710  0.84400476  0.36092788    -0.31100
H723        H  0.12587661  0.80857736  0.30888361     0.09900
C724        C  0.10706929  0.78542971  0.20949299     0.03100
C725        C  0.09333501  0.76083298  0.20064598    -0.13400
C726        C  0.06703080  0.75598129  0.21829847    -0.09100
C727        C  0.05436003  0.77647080  0.24533814     0.06500
C728        C  0.06785787  0.80123580  0.25313508    -0.14100
S729        S  0.14112849  0.79082444  0.18744091    -0.31100
H730        H  0.10308300  0.74535869  0.17968527     0.10800
S731        S  0.02217769  0.77147751  0.27417588    -0.28200
H732        H  0.05834236  0.81660437  0.27470439     0.08000
H733        H  0.18140243  0.85855365  0.34488817     0.26400
H734        H  0.14418639  0.76497284  0.16694252     0.21200
H735        H  0.02937631  0.74552923  0.29063042     0.26500
H736        H  0.08779583  0.83313929  0.16136121     0.15400
C737        C  0.06015537  0.92058137  0.46842020    -0.11900
C738        C  0.06804285  0.92638270  0.51395082     0.14600
C739        C  0.09062695  0.94362170  0.52200629     0.01500
C740        C  0.10687726  0.95148276  0.48489099    -0.16300
C741        C  0.10169173  0.94166332  0.44022033    -0.11100
C742        C  0.07717630  0.92733254  0.43142404     0.08300
C743        C  0.06073049  0.90588318  0.54868705     0.09300
S744        S  0.10255669  0.95211988  0.57919096    -0.25400
H745        H  0.12524570  0.96327661  0.49162971     0.19600
S746        S  0.06880734  0.91316387  0.37573748    -0.31100
H747        H  0.04294909  0.90702914  0.46229374     0.09900
C748        C  0.03917847  0.90890721  0.58027448     0.03100
C749        C  0.03394553  0.88787742  0.61190398    -0.13400
C750        C  0.04966004  0.86390322  0.61159394    -0.09100
C751        C  0.07144489  0.86132222  0.57982883     0.06500
C752        C  0.07650076  0.88218474  0.54877407    -0.14100
S753        S  0.01855009  0.93930036  0.58006919    -0.31100
H754        H  0.01728606  0.88982822  0.63625253     0.10800
S755        S  0.09437860  0.83263411  0.57758996    -0.28200
H756        H  0.09321925  0.88009482  0.52445164     0.08000
H757        H  0.09429196  0.90048736  0.36975616     0.26400
H758        H  0.00238731  0.93238708  0.61847065     0.21200
H759        H  0.09676601  0.83033803  0.62561669     0.26500
H760        H  0.07747891  0.94827200  0.60164831     0.15400
C761        C  0.23210744  0.98025468  0.14613504    -0.11900
C762        C  0.21374423  0.99110755  0.11424721     0.14600
C763        C  0.18702144  0.99772054  0.12837492     0.01500
C764        C  0.17907034  0.99272587  0.17398663    -0.16300
C765        C  0.19732210  0.98133908  0.20592801    -0.11100
C766        C  0.22422989  0.97498947  0.19142245     0.08300
C767        C  0.22195069  0.99066499  0.06538401     0.09300
S768        S  0.16218089  0.01226499  0.08975593    -0.25400
H769        H  0.15854615  0.99797497  0.18466390     0.19600
S770        S  0.24905877  0.95820230  0.22732272    -0.31100
H771        H  0.25237872  0.97440993  0.13487298     0.09900
C772        C  0.24313163  0.00737581  0.04840866     0.03100
C773        C  0.25333946  0.00269943  0.00384957    -0.13400
C774        C  0.24300129  0.98132697  0.97672133    -0.09100
C775        C  0.22074806  0.96569279  0.99304392     0.06500
C776        C  0.21060368  0.97041345  0.03719363    -0.14100
S777        S  0.25772549  0.03388692  0.08412061    -0.31100
H778        H  0.27038898  0.01459847  0.99117759     0.10800
S779        S  0.20465378  0.93921936  0.95937474    -0.28200
H780        H  0.19433988  0.95755926  0.05034638     0.08000
H781        H  0.23013263  0.93947382  0.24512983     0.26400
H782        H  0.27737863  0.04282286  0.05209080     0.21200
H783        H  0.20789283  0.95328629  0.91764827     0.26500
H784        H  0.18101302  0.02389624  0.05886443     0.15400
C785        C  0.23184706  0.95757903  0.56591613    -0.11900
C786        C  0.25227808  0.97758307  0.56737484     0.14600
C787        C  0.25650662  0.99459528  0.52885310     0.01500
C788        C  0.24042549  0.99086283  0.48938026    -0.16300
C789        C  0.22033025  0.97034761  0.48744635    -0.11100
C790        C  0.21559435  0.95405217  0.52685502     0.08300
C791        C  0.26693054  0.98119052  0.61135768     0.09300
S792        S  0.28193958  0.02127528  0.52782180    -0.25400
H793        H  0.24431232  0.00345179  0.45939021     0.19600
S794        S  0.18834850  0.92937842  0.53054332    -0.31100
H795        H  0.22804557  0.94508622  0.59607905     0.09900
C796        C  0.25778862  0.00028446  0.64413326     0.03100
C797        C  0.26800681  0.99920806  0.68913463    -0.13400
C798        C  0.28697965  0.97923240  0.70216825    -0.09100
C799        C  0.29734091  0.96120529  0.66842409     0.06500
C800        C  0.28730555  0.96246480  0.62325775    -0.14100
S801        S  0.23143859  0.02449878  0.62971794    -0.31100
H802        H  0.26013611  0.01309884  0.71501436     0.10800
S803        S  0.32091002  0.93437730  0.68193744    -0.28200
H804        H  0.29408897  0.94761859  0.59798478     0.08000
H805        H  0.16982599  0.94539048  0.50562710     0.26400
H806        H  0.23218472  0.03912678  0.67154540     0.21200
H807        H  0.30570759  0.92525425  0.72011286     0.26500
H808        H  0.29926300  0.01018943  0.56146739     0.15400
C809        C  0.27818436  0.87317898  0.29293444    -0.11900
C810        C  0.30310702  0.88227188  0.31133958     0.14600
C811        C  0.30338509  0.90570167  0.33987664     0.01500
C812        C  0.27905773  0.91953946  0.34887970    -0.16300
C813        C  0.25405864  0.91033879  0.33097236    -0.11100
C814        C  0.25372706  0.88688899  0.30222315     0.08300
C815        C  0.32875143  0.86884641  0.29621862     0.09300
S816        S  0.33404857  0.91888251  0.36634336    -0.25400
H817        H  0.27958916  0.93732950  0.37117200     0.19600
S818        S  0.22334404  0.87389070  0.27442359    -0.31100
H819        H  0.27791966  0.85569959  0.26994545     0.09900
C820        C  0.33447784  0.84119469  0.30562611     0.03100
C821        C  0.35899584  0.82967393  0.28953649    -0.13400
C822        C  0.37800633  0.84534450  0.26470758    -0.09100
C823        C  0.37192155  0.87293481  0.25508175     0.06500
C824        C  0.34757435  0.88428219  0.27089977    -0.14100
S825        S  0.31109069  0.82085043  0.33936086    -0.31100
H826        H  0.36360133  0.80854263  0.29684918     0.10800
S827        S  0.39350272  0.89442493  0.22039666    -0.28200
H828        H  0.34300084  0.90533403  0.26271128     0.08000
H829        H  0.21007218  0.89902071  0.26921671     0.26400
H830        H  0.32683853  0.79691515  0.33979878     0.21200
H831        H  0.39759875  0.87438139  0.18637360     0.26500
H832        H  0.34731240  0.89360249  0.37012837     0.15400
C833        C  0.39924668  0.35237908  0.32044254    -0.11900
C834        C  0.39020405  0.35955569  0.36468181     0.14600
C835        C  0.40212821  0.34657091  0.40337651     0.01500
C836        C  0.42502652  0.32965171  0.39711083    -0.16300
C837        C  0.43557154  0.32466728  0.35279701    -0.11100
C838        C  0.42128981  0.33481702  0.31412511     0.08300
C839        C  0.37124916  0.38322442  0.36808450     0.09300
S840        S  0.38976650  0.35162474  0.46138462    -0.25400
H841        H  0.43547216  0.32157113  0.42703604     0.19600
S842        S  0.43065348  0.32674289  0.25554463    -0.31100
H843        H  0.38983362  0.36155413  0.29042380     0.09900
C844        C  0.38056753  0.40868375  0.38478141     0.03100
C845        C  0.36473752  0.43206736  0.37765861    -0.13400
C846        C  0.34004583  0.43106038  0.35296514    -0.09100
C847        C  0.33021381  0.40542066  0.33772416     0.06500
C848        C  0.34573083  0.38184711  0.34588413    -0.14100
S849        S  0.41386349  0.41215343  0.41113610    -0.31100
H850        H  0.37220833  0.45160211  0.38990344     0.10800
S851        S  0.29948285  0.40167275  0.30414657    -0.28200
H852        H  0.33871741  0.36248404  0.33209770     0.08000
H853        H  0.44152213  0.30096470  0.26574896     0.26400
H854        H  0.41305962  0.44051142  0.41843011     0.21200
H855        H  0.30450607  0.42451906  0.27607053     0.26500
H856        H  0.36342075  0.36005479  0.44873339     0.15400
C857        C  0.41119301  0.10246170  0.88528692    -0.11900
C858        C  0.38917891  0.10972653  0.85713485     0.14600
C859        C  0.39038899  0.13448573  0.83226011     0.01500
C860        C  0.41470074  0.14974037  0.83207072    -0.16300
C861        C  0.43756410  0.14108848  0.85723419    -0.11100
C862        C  0.43504989  0.11807221  0.88630090     0.08300
C863        C  0.36700893  0.08934764  0.85099003     0.09300
S864        S  0.36211356  0.14693584  0.79864770    -0.25400
H865        H  0.41619762  0.16764411  0.81035335     0.19600
S866        S  0.46173218  0.10725300  0.92495725    -0.31100
H867        H  0.41015801  0.08388429  0.90543364     0.09900
C868        C  0.36474379  0.07416541  0.80967914     0.03100
C869        C  0.34665121  0.05199923  0.80763130    -0.13400
C870        C  0.33122164  0.04423155  0.84621119    -0.09100
C871        C  0.33295043  0.05977607  0.88713939     0.06500
C872        C  0.35078858  0.08216989  0.88909853    -0.14100
S873        S  0.38702002  0.08097980  0.76125342    -0.31100
H874        H  0.34579688  0.03946939  0.77678938     0.10800
S875        S  0.31511432  0.05039365  0.93914973    -0.28200
H876        H  0.35296048  0.09337040  0.92120222     0.08000
H877        H  0.47215219  0.13361844  0.93304141     0.26400
H878        H  0.37694332  0.06034161  0.73199287     0.21200
H879        H  0.29217814  0.03937337  0.91677656     0.26500
H880        H  0.34163792  0.13306759  0.82328886     0.15400
C881        C  0.51844564  0.26348317  0.03329718    -0.11900
C882        C  0.49649117  0.25467683  0.06035637     0.14600
C883        C  0.47735269  0.23606028  0.04171215     0.01500
C884        C  0.48192491  0.22494832  0.99782354    -0.16300
C885        C  0.50500331  0.23237988  0.97200641    -0.11100
C886        C  0.52288045  0.25268366  0.98925559     0.08300
C887        C  0.49588820  0.26361665  0.10903608     0.09300
S888        S  0.44738208  0.22503943  0.07276267    -0.25400
H889        H  0.46796841  0.20963016  0.98453556     0.19600
S890        S  0.55126453  0.26525918  0.95538145    -0.31100
H891        H  0.53267549  0.27821505  0.04754312     0.09900
C892        C  0.50191882  0.24530240  0.14495102     0.03100
C893        C  0.50311594  0.25497548  0.19031804    -0.13400
C894        C  0.49976555  0.28278214  0.20043488    -0.09100
C895        C  0.49450122  0.30130299  0.16420743     0.06500
C896        C  0.49237736  0.29140205  0.11899186    -0.14100
S897        S  0.51017785  0.21006674  0.13284968    -0.31100
H898        H  0.50781458  0.24096698  0.21801920     0.10800
S899        S  0.49060204  0.33760907  0.17232192    -0.28200
H900        H  0.48845522  0.30553342  0.09109656     0.08000
H901        H  0.56279984  0.28212403  0.98959653     0.26400
H902        H  0.51600433  0.20234749  0.17852544     0.21200
H903        H  0.48306672  0.33719888  0.21889972     0.26500
H904        H  0.44504458  0.24844981  0.10059752     0.15400
C905        C  0.48417146  0.20700490  0.63442885    -0.11900
C906        C  0.50817455  0.20344379  0.60885929     0.14600
C907        C  0.52960203  0.18755660  0.62731607     0.01500
C908        C  0.52692056  0.17681165  0.67187525    -0.16300
C909        C  0.50360277  0.18197383  0.69852561    -0.11100
C910        C  0.48160831  0.19635207  0.67886559     0.08300
C911        C  0.51058711  0.21825797  0.56476137     0.09300
S912        S  0.56147785  0.18135273  0.59770321    -0.25400
H913        H  0.54396266  0.16602759  0.68709235     0.19600
S914        S  0.45011540  0.20247204  0.70943291    -0.31100
H915        H  0.46758668  0.21885703  0.62009316     0.09900
C916        C  0.50362641  0.20595357  0.52246758     0.03100
C917        C  0.50566335  0.22116421  0.48168387    -0.13400
C918        C  0.51432932  0.24857700  0.48235258    -0.09100
C919        C  0.52045257  0.26102658  0.52528047     0.06500
C920        C  0.51881894  0.24564864  0.56580234    -0.14100
S921        S  0.49247506  0.17082962  0.52055154    -0.31100
H922        H  0.50107825  0.21144324  0.44897456     0.10800
S923        S  0.52933517  0.29659057  0.53109380    -0.28200
H924        H  0.52357745  0.25521936  0.59862563     0.08000
H925        H  0.45176643  0.17935355  0.73794268     0.26400
H926        H  0.48915012  0.16915983  0.47239537     0.21200
H927        H  0.51121419  0.30549425  0.49668215     0.26500
H928        H  0.55714545  0.19708404  0.55808363     0.15400
C929        C  0.85659719  0.89655131  0.66248859    -0.11900
C930        C  0.87563551  0.88982335  0.69677054     0.14600
C931        C  0.87957104  0.90767905  0.73439711     0.01500
C932        C  0.86425497  0.93165510  0.73716251    -0.16300
C933        C  0.84560647  0.93898042  0.70234673    -0.11100
C934        C  0.84183269  0.92102470  0.66451113     0.08300
C935        C  0.89415329  0.86633696  0.68965541     0.09300
S936        S  0.90548543  0.90101836  0.77739868    -0.25400
H937        H  0.86733716  0.94511279  0.76638215     0.19600
S938        S  0.82018553  0.92891143  0.61618477    -0.31100
H939        H  0.85415612  0.88320907  0.63289148     0.09900
C940        C  0.89412716  0.84352806  0.71928086     0.03100
C941        C  0.91628168  0.82538911  0.71821792    -0.13400
C942        C  0.93814352  0.82966313  0.68774114    -0.09100
C943        C  0.93625620  0.85044707  0.65425036     0.06500
C944        C  0.91449348  0.86873548  0.65591045    -0.14100
S945        S  0.86684615  0.83857479  0.76032132    -0.31100
H946        H  0.91764258  0.80928923  0.74362383     0.10800
S947        S  0.96178594  0.85545918  0.61010195    -0.28200
H948        H  0.91420100  0.88583824  0.63229491     0.08000
H949        H  0.82980190  0.95587177  0.61186820     0.26400
H950        H  0.87498488  0.81250053  0.77495741     0.21200
H951        H  0.97089999  0.82826847  0.60928943     0.26500
H952        H  0.90108180  0.92443761  0.80452009     0.15400
C953        C  0.67947755  0.05756033  0.78035006    -0.11900
C954        C  0.67605092  0.08521663  0.76957816     0.14600
C955        C  0.69647931  0.09879505  0.74421457     0.01500
C956        C  0.71918165  0.08430014  0.72851656    -0.16300
C957        C  0.72274299  0.05638767  0.73835136    -0.11100
C958        C  0.70255140  0.04294268  0.76525354     0.08300
C959        C  0.65063947  0.09926983  0.78399869     0.09300
S960        S  0.69481178  0.13465695  0.73060020    -0.25400
H961        H  0.73448820  0.09527674  0.70891492     0.19600
S962        S  0.70526131  0.00725240  0.78011993    -0.31100
H963        H  0.66376909  0.04739244  0.80024270     0.09900
C964        C  0.62998624  0.10558011  0.75196511     0.03100
C965        C  0.60677946  0.11992608  0.76665803    -0.13400
C966        C  0.60348581  0.12791561  0.81301038    -0.09100
C967        C  0.62400995  0.12064418  0.84533264     0.06500
C968        C  0.64736952  0.10679577  0.83032590    -0.14100
S969        S  0.63297915  0.09488531  0.69245993    -0.31100
H970        H  0.59110195  0.12495519  0.74181171     0.10800
S971        S  0.62129991  0.12704678  0.90648707    -0.28200
H972        H  0.66308599  0.10160168  0.85508080     0.08000
H973        H  0.67955437  0.00454697  0.80125455     0.26400
H974        H  0.60855785  0.10667331  0.67679977     0.21200
H975        H  0.59439308  0.11709495  0.90962855     0.26500
H976        H  0.67991153  0.14257184  0.76984787     0.15400
C977        C  0.60917949  0.90383528  0.16612426    -0.11900
C978        C  0.61677274  0.88128347  0.19269960     0.14600
C979        C  0.64235089  0.88155238  0.21535719     0.01500
C980        C  0.65803070  0.90558811  0.21569225    -0.16300
C981        C  0.64879541  0.92912522  0.19317631    -0.11100
C982        C  0.62500310  0.92754432  0.16566522     0.08300
C983        C  0.59529093  0.86067430  0.20238662     0.09300
S984        S  0.65497709  0.85266018  0.24714217    -0.25400
H985        H  0.67651706  0.90645316  0.23616723     0.19600
S986        S  0.61298269  0.95559963  0.13103281    -0.31100
H987        H  0.58987386  0.90360605  0.14786240     0.09900
C988        C  0.58186820  0.86058714  0.24548168     0.03100
C989        C  0.55796038  0.84527266  0.25092670    -0.13400
C990        C  0.54641971  0.83070793  0.21393424    -0.09100
C991        C  0.56028957  0.83006318  0.17116196     0.06500
C992        C  0.58472631  0.84479682  0.16601975    -0.14100
S993        S  0.59342703  0.88216248  0.29237830    -0.31100
H994        H  0.54736046  0.84571433  0.28372829     0.10800
S995        S  0.54660620  0.81315745  0.12087101    -0.28200
H996        H  0.59461725  0.84536077  0.13257308     0.08000
H997        H  0.63893321  0.96704360  0.12310529     0.26400
H998        H  0.57167591  0.87687473  0.32278774     0.21200
H999        H  0.51962601  0.82202762  0.12782537     0.26500
H1000       H  0.63887741  0.83295290  0.22454875     0.15400
C1001       C  0.60555821  0.18902165  0.29804230    -0.11900
C1002       C  0.59078922  0.16465197  0.29401139     0.14600
C1003       C  0.56223297  0.16487645  0.30058811     0.01500
C1004       C  0.54919439  0.18942528  0.31182521    -0.16300
C1005       C  0.56399922  0.21387397  0.31620881    -0.11100
C1006       C  0.59252114  0.21357571  0.30833177     0.08300
C1007       C  0.60583777  0.13977265  0.28074392     0.09300
S1008       S  0.54134021  0.13462387  0.29592237    -0.25400
H1009       H  0.52737106  0.18934772  0.31790323     0.19600
S1010       S  0.61325471  0.24396637  0.30831658    -0.31100
H1011       H  0.62739715  0.18898010  0.29201837     0.09900
C1012       C  0.61401192  0.13564651  0.23477329     0.03100
C1013       C  0.62898491  0.11237953  0.22332371    -0.13400
C1014       C  0.63628207  0.09291933  0.25685813    -0.09100
C1015       C  0.62831364  0.09746277  0.30326589     0.06500
C1016       C  0.61295684  0.12065968  0.31454368    -0.14100
S1017       S  0.60472819  0.15973606  0.19034247    -0.31100
H1018       H  0.63454146  0.10915310  0.18758275     0.10800
S1019       S  0.63770336  0.07518351  0.34986037    -0.28200
H1020       H  0.60693687  0.12413658  0.35006217     0.08000
H1021       H  0.59413841  0.25906232  0.28284119     0.26400
H1022       H  0.61663373  0.14575297  0.15299330     0.21200
H1023       H  0.66487342  0.07234942  0.33486525     0.26500
H1024       H  0.55813455  0.12020522  0.26512325     0.15400
C1025       C  0.56068417  0.05170938  0.10167608    -0.11900
C1026       C  0.56707450  0.05607337  0.05514269     0.14600
C1027       C  0.59238504  0.04696932  0.03775076     0.01500
C1028       C  0.61103027  0.03483759  0.06749410    -0.16300
C1029       C  0.60609874  0.03322729  0.11515025    -0.11100
C1030       C  0.57994818  0.04071136  0.13200082     0.08300
C1031       C  0.54975294  0.07443901  0.02763351     0.09300
S1032       S  0.60362247  0.05301024  0.97926740    -0.25400
H1033       H  0.63050894  0.02874864  0.05365925     0.19600
S1034       S  0.57056050  0.03948357  0.19205464    -0.31100
H1035       H  0.54134136  0.05884556  0.11513071     0.09900
C1036       C  0.53809720  0.06611542  0.98559193     0.03100
C1037       C  0.53100493  0.08592357  0.95308623    -0.13400
C1038       C  0.53459192  0.11388938  0.96262422    -0.09100
C1039       C  0.54143763  0.12197975  0.00832011     0.06500
C1040       C  0.54951635  0.10206780  0.03990928    -0.14100
S1041       S  0.53412453  0.03032732  0.97235904    -0.31100
H1042       H  0.52418239  0.07946693  0.91924453     0.10800
S1043       S  0.54141336  0.15725381  0.02710903    -0.28200
H1044       H  0.55769256  0.10818266  0.07311440     0.08000
H1045       H  0.59094620  0.05822820  0.20524282     0.26400
H1046       H  0.52255522  0.03375182  0.92833345     0.21200
H1047       H  0.54413591  0.15219052  0.07467151     0.26500
H1048       H  0.59445404  0.08012694  0.97742899     0.15400
C1049       C  0.79779626  0.00004999  0.93645848    -0.11900
C1050       C  0.77203962  0.98795102  0.94167533     0.14600
C1051       C  0.75888021  0.97640600  0.90312698     0.01500
C1052       C  0.77033649  0.97969142  0.85956252    -0.16300
C1053       C  0.79521969  0.99367836  0.85336989    -0.11100
C1054       C  0.80991038  0.00230819  0.89287691     0.08300
C1055       C  0.75741978  0.99141298  0.98562365     0.09300
S1056       S  0.72667951  0.95858907  0.90703976    -0.25400
H1057       H  0.75899169  0.97204687  0.83011013     0.19600
S1058       S  0.84406691  0.01579853  0.89048814    -0.31100
H1059       H  0.80819485  0.00838344  0.96639180     0.09900
C1060       C  0.76433065  0.97672569  0.02553339     0.03100
C1061       C  0.74930421  0.98095734  0.06614864    -0.13400
C1062       C  0.72770410  0.99976773  0.06745924    -0.09100
C1063       C  0.72070164  0.01403156  0.02680455     0.06500
C1064       C  0.73574661  0.00988630  0.98666454    -0.14100
S1065       S  0.79201621  0.95253739  0.02446169    -0.31100
H1066       H  0.75482194  0.97011857  0.09726846     0.10800
S1067       S  0.69202078  0.03671446  0.02309321    -0.28200
H1068       H  0.73030517  0.02091770  0.95562097     0.08000
H1069       H  0.85269205  0.99794465  0.85530027     0.26400
H1070       H  0.79050290  0.94513854  0.07126981     0.21200
H1071       H  0.67547290  0.01927393  0.04936620     0.26500
H1072       H  0.73015575  0.94958503  0.95269447     0.15400
C1073       C  0.76557932  0.00992608  0.48515766    -0.11900
C1074       C  0.73912103  0.99897888  0.48359130     0.14600
C1075       C  0.72623193  0.99107017  0.52500400     0.01500
C1076       C  0.73949690  0.99550625  0.56710069    -0.16300
C1077       C  0.76570860  0.00724379  0.56905748    -0.11100
C1078       C  0.77914457  0.01380334  0.52722361     0.08300
C1079       C  0.72542910  0.99649454  0.43828213     0.09300
S1080       S  0.69266167  0.97584452  0.52663290    -0.25400
H1081       H  0.72892199  0.99023545  0.59871415     0.19600
S1082       S  0.81369176  0.02651817  0.52485525    -0.31100
H1083       H  0.77571793  0.01552324  0.45328991     0.09900
C1084       C  0.70443559  0.01444866  0.42508786     0.03100
C1085       C  0.69258018  0.01176708  0.38124580    -0.13400
C1086       C  0.70168704  0.99186115  0.35001020    -0.09100
C1087       C  0.72217383  0.97336403  0.36397139     0.06500
C1088       C  0.73394320  0.97603431  0.40771890    -0.14100
S1089       S  0.69403196  0.04190106  0.46281616    -0.31100
H1090       H  0.67728335  0.02621749  0.37023035     0.10800
S1091       S  0.73409864  0.94589545  0.32771389    -0.28200
H1092       H  0.74988378  0.96205764  0.41809266     0.08000
H1093       H  0.82333219  0.00983617  0.56075539     0.26400
H1094       H  0.67251723  0.05144370  0.43517087     0.21200
H1095       H  0.70917094  0.94193294  0.30450874     0.26500
H1096       H  0.69376942  0.96350773  0.48283470     0.15400
C1097       C  0.07270344  0.36941641  0.87663631    -0.11900
C1098       C  0.09453387  0.35926598  0.85054144     0.14600
C1099       C  0.09121074  0.33438333  0.82630812     0.01500
C1100       C  0.06527083  0.32220243  0.82406513    -0.16300
C1101       C  0.04283630  0.33399541  0.84670536    -0.11100
C1102       C  0.04716934  0.35680512  0.87569893     0.08300
C1103       C  0.11823621  0.37775543  0.84386943     0.09300
S1104       S  0.11884190  0.31804413  0.79590141    -0.25400
H1105       H  0.06234530  0.30421203  0.80280168     0.19600
S1106       S  0.02084139  0.37105299  0.91186086    -0.31100
H1107       H  0.07521310  0.38810580  0.89628236     0.09900
C1108       C  0.12190316  0.39123693  0.80136922     0.03100
C1109       C  0.13893935  0.41408875  0.79933627    -0.13400
C1110       C  0.15188530  0.42452423  0.83891705    -0.09100
C1111       C  0.14966910  0.41003803  0.88080596     0.06500
C1112       C  0.13317797  0.38657961  0.88264912    -0.14100
S1113       S  0.10196844  0.38215669  0.75101701    -0.31100
H1114       H  0.14019573  0.42539662  0.76740945     0.10800
S1115       S  0.16451609  0.42208528  0.93400364    -0.28200
H1116       H  0.13006564  0.37653527  0.91550797     0.08000
H1117       H  0.00752608  0.34602923  0.91986415     0.26400
H1118       H  0.11539092  0.39940152  0.71954685     0.21200
H1119       H  0.15750950  0.44958637  0.92741653     0.26500
H1120       H  0.13998754  0.33088098  0.82061777     0.15400
C1121       C  0.89762550  0.18816040  0.77628492    -0.11900
C1122       C  0.87352360  0.18330839  0.80104413     0.14600
C1123       C  0.86473867  0.20238944  0.83437081     0.01500
C1124       C  0.88051708  0.22572309  0.84261354    -0.16300
C1125       C  0.90516263  0.23019959  0.81897722    -0.11100
C1126       C  0.91351924  0.21145606  0.78469679     0.08300
C1127       C  0.85855794  0.15779129  0.79143082     0.09300
S1128       S  0.83367334  0.19848700  0.86729021    -0.25400
H1129       H  0.87388360  0.24013925  0.86868999     0.19600
S1130       S  0.94355323  0.21760384  0.74992273    -0.31100
H1131       H  0.90392124  0.17354331  0.75033206     0.09900
C1132       C  0.83844900  0.15626317  0.75689975     0.03100
C1133       C  0.82707274  0.13082556  0.74546844    -0.13400
C1134       C  0.83552447  0.10686231  0.76791673    -0.09100
C1135       C  0.85445323  0.10900142  0.80468064     0.06500
C1136       C  0.86607570  0.13427235  0.81539888    -0.14100
S1137       S  0.82828687  0.18652665  0.72606725    -0.31100
H1138       H  0.81261750  0.12945123  0.71732592     0.10800
S1139       S  0.86444450  0.08047352  0.83967764    -0.28200
H1140       H  0.88125811  0.13564122  0.84250661     0.08000
H1141       H  0.94157167  0.19403903  0.72231038     0.26400
H1142       H  0.80932512  0.17372040  0.69663575     0.21200
H1143       H  0.83826694  0.06861174  0.83938680     0.26500
H1144       H  0.83101660  0.17007697  0.86338394     0.15400
C1145       C  0.13381425  0.08853548  0.34050169    -0.11900
C1146       C  0.10854701  0.08808648  0.36350302     0.14600
C1147       C  0.10011404  0.06386741  0.38579317     0.01500
C1148       C  0.11652411  0.04067612  0.38316623    -0.16300
C1149       C  0.14074603  0.04049501  0.35722125    -0.11100
C1150       C  0.14979870  0.06496384  0.33657025     0.08300
C1151       C  0.08930710  0.11092622  0.35597887     0.09300
S1152       S  0.06769707  0.06030072  0.41488460    -0.25400
H1153       H  0.10943658  0.02200222  0.39926499     0.19600
S1154       S  0.17991958  0.06678918  0.30100240    -0.31100
H1155       H  0.14016409  0.10689212  0.32265288     0.09900
C1156       C  0.07893719  0.12719624  0.39219959     0.03100
C1157       C  0.05663190  0.14451425  0.38366176    -0.13400
C1158       C  0.04488432  0.14595223  0.33948052    -0.09100
C1159       C  0.05738787  0.13181009  0.30248710     0.06500
C1160       C  0.07907983  0.11427892  0.31126144    -0.14100
S1161       S  0.09349726  0.12515634  0.44928800    -0.31100
H1162       H  0.04734253  0.15565263  0.41188423     0.10800
S1163       S  0.04620207  0.13457611  0.24332521    -0.28200
H1164       H  0.08738446  0.10225367  0.28312784     0.08000
H1165       H  0.17470838  0.04225412  0.27722103     0.26400
H1166       H  0.07471636  0.14264005  0.47099851     0.21200
H1167       H  0.03680163  0.16149562  0.24745387     0.26500
H1168       H  0.05254081  0.07603218  0.38363433     0.15400
C1169       C  0.79923607  0.07156951  0.27114412    -0.11900
C1170       C  0.80374498  0.09621661  0.24784640     0.14600
C1171       C  0.78549562  0.10434409  0.21293077     0.01500
C1172       C  0.76329051  0.08759003  0.20187520    -0.16300
C1173       C  0.75869050  0.06281018  0.22494977    -0.11100
C1174       C  0.77681773  0.05494566  0.26042501     0.08300
C1175       C  0.82824332  0.11240462  0.25960875     0.09300
S1176       S  0.78963435  0.13546183  0.18047790    -0.25400
H1177       H  0.74956548  0.09388573  0.17461806     0.19600
S1178       S  0.77169841  0.02482847  0.29475946    -0.31100
H1179       H  0.81317569  0.06539195  0.29817131     0.09900
C1180       C  0.82886979  0.12951596  0.29868489     0.03100
C1181       C  0.85304987  0.14335622  0.30987036    -0.13400
C1182       C  0.87673082  0.14016632  0.28301016    -0.09100
C1183       C  0.87560848  0.12397900  0.24253420     0.06500
C1184       C  0.85134581  0.11022729  0.23139976    -0.14100
S1185       S  0.79897982  0.13336598  0.33459398    -0.31100
H1186       H  0.85386713  0.15570489  0.34089365     0.10800
S1187       S  0.90467085  0.12109599  0.20434736    -0.28200
H1188       H  0.85035494  0.09738030  0.20096863     0.08000
H1189       H  0.74376068  0.02996925  0.30135019     0.26400
H1190       H  0.81036854  0.15218690  0.36592793     0.21200
H1191       H  0.89238493  0.10379565  0.17153211     0.26500
H1192       H  0.80416222  0.15019865  0.21412237     0.15400
C1193       C  0.90533361  0.08190480  0.57532706    -0.11900
C1194       C  0.91279239  0.06123931  0.54425851     0.14600
C1195       C  0.90573725  0.03390587  0.55420659     0.01500
C1196       C  0.88905978  0.02826771  0.59239132    -0.16300
C1197       C  0.87985191  0.04935417  0.62124655    -0.11100
C1198       C  0.88931127  0.07619947  0.61395764     0.08300
C1199       C  0.92461502  0.06989662  0.49956779     0.09300
S1200       S  0.91624547  0.00568772  0.51841224    -0.25400
H1201       H  0.88213112  0.00755019  0.59825114     0.19600
S1202       S  0.88105265  0.10408351  0.65224544    -0.31100
H1203       H  0.91113219  0.10285657  0.56840070     0.09900
C1204       C  0.90831151  0.07055906  0.45943684     0.03100
C1205       C  0.91701487  0.08591347  0.42149543    -0.13400
C1206       C  0.94177510  0.10025792  0.42255316    -0.09100
C1207       C  0.95949974  0.09698026  0.46048863     0.06500
C1208       C  0.95047625  0.08232192  0.49907716    -0.14100
S1209       S  0.87495560  0.05474559  0.45825566    -0.31100
H1210       H  0.90351407  0.08858887  0.39224922     0.10800
S1211       S  0.99254035  0.11316377  0.46346963    -0.20200
H1212       H  0.96308506  0.08174070  0.52979036     0.08000
H1213       H  0.87985648  0.08805860  0.69239277     0.26400
H1214       H  0.86913198  0.06013219  0.41161714     0.21200
H1215       H  0.99840429  0.11066168  0.41619733     0.26500
H1216       H  0.93908984  0.01873636  0.49899519     0.15400
C1217       C  0.99635052  0.23211248  0.02593271    -0.11900
C1218       C  0.97480344  0.23165380  0.05770839     0.14600
C1219       C  0.95079279  0.24632392  0.04818316     0.01500
C1220       C  0.94830908  0.25995438  0.00625917    -0.16300
C1221       C  0.96956303  0.26015514  0.97353317    -0.11100
C1222       C  0.99420720  0.24639298  0.98430965     0.08300
C1223       C  0.97832671  0.21690233  0.10158526     0.09300
S1224       S  0.92251000  0.24855097  0.08797553    -0.25400
H1225       H  0.92941500  0.27061061  0.99938967     0.19600
S1226       S  0.02352069  0.24563054  0.94679991    -0.31100
H1227       H  0.01504708  0.22132141  0.03377989     0.09900
C1228       C  0.96344040  0.19308730  0.11183777     0.03100
C1229       C  0.96452535  0.18229380  0.15657663    -0.13400
C1230       C  0.98066283  0.19455579  0.19114672    -0.09100
C1231       C  0.99755116  0.21708929  0.17887751     0.06500
C1232       C  0.99576898  0.22812855  0.13467891    -0.14100
S1233       S  0.94258309  0.17686487  0.06827068    -0.31100
H1234       H  0.95195047  0.16480333  0.16492760     0.10800
S1235       S  0.02144546  0.23353868  0.21732332    -0.28200
H1236       H  0.00766679  0.24612247  0.12624086     0.08000
H1237       H  0.02557534  0.27424294  0.94460213     0.26400
H1238       H  0.93669221  0.15311912  0.09358773     0.21200
H1239       H  0.03346060  0.20894797  0.23141087     0.26500
H1240       H  0.93811131  0.24711636  0.12853515     0.15400
C1241       C  0.99666930  0.25229085  0.63857016    -0.11900
C1242       C  0.97920175  0.26261553  0.60477139     0.14600
C1243       C  0.96341592  0.28606652  0.61422608     0.01500
C1244       C  0.96484208  0.29807763  0.65800793    -0.16300
C1245       C  0.98100007  0.28659006  0.69273651    -0.11100
C1246       C  0.99798866  0.26416826  0.68218920     0.08300
C1247       C  0.97733111  0.24761908  0.56088000     0.09300
S1248       S  0.93999611  0.30071184  0.57317421    -0.25400
H1249       H  0.95177932  0.31525022  0.66597698     0.19600
S1250       S  0.02163231  0.24962992  0.72295314    -0.31100
H1251       H  0.00914448  0.23460486  0.63099800     0.09900
C1252       C  0.98838502  0.25812752  0.51988894     0.03100
C1253       C  0.98551233  0.24321088  0.47899197    -0.13400
C1254       C  0.97206116  0.21775883  0.47824938    -0.09100
C1255       C  0.96248520  0.20662876  0.52037236     0.06500
C1256       C  0.96492130  0.22185707  0.56093719    -0.14100
S1257       S  0.00630267  0.29039056  0.51973471    -0.31100
H1258       H  0.99325227  0.25185654  0.44722923     0.10800
S1259       S  0.94758445  0.17312292  0.52545857    -0.28200
H1260       H  0.95715494  0.21353055  0.59301347     0.08000
H1261       H  0.02706288  0.27431484  0.74611817     0.26400
H1262       H  0.00995433  0.29214522  0.47167132     0.21200
H1263       H  0.96627173  0.16116177  0.49487484     0.26500
H1264       H  0.93390770  0.27645620  0.54933348     0.15400
C1265       C  0.87013271  0.56834310  0.15398372    -0.11900
C1266       C  0.86753565  0.58848342  0.18814527     0.14600
C1267       C  0.84588782  0.58657699  0.22030961     0.01500
C1268       C  0.82964282  0.56297885  0.22123117    -0.16300
C1269       C  0.83435399  0.54148463  0.19020282    -0.11100
C1270       C  0.85360673  0.54502647  0.15443985     0.08300
C1271       C  0.89080265  0.60750659  0.19487277     0.09300
S1272       S  0.83969123  0.61235378  0.26359024    -0.25400
H1273       H  0.81461529  0.56056527  0.24838728     0.19600
S1274       S  0.85884867  0.51989766  0.10976290    -0.31100
H1275       H  0.88634700  0.56990196  0.12865517     0.09900
C1276       C  0.90949590  0.60307091  0.23105538     0.03100
C1277       C  0.93327334  0.61879211  0.23351734    -0.13400
C1278       C  0.93903718  0.63897490  0.20070797    -0.09100
C1279       C  0.91987479  0.64421584  0.16542427     0.06500
C1280       C  0.89611909  0.62813866  0.16244523    -0.14100
S1281       S  0.90441847  0.57580920  0.27211765    -0.31100
H1282       H  0.94805195  0.61470174  0.26039192     0.10800
S1283       S  0.92593497  0.66912127  0.12101898    -0.28200
H1284       H  0.88200028  0.63130985  0.13422150     0.08000
H1285       H  0.83267436  0.50812838  0.11242383     0.26400
H1286       H  0.92550388  0.58336942  0.30255457     0.21200
H1287       H  0.93121791  0.69050537  0.15219545     0.26500
H1288       H  0.85301430  0.63373001  0.24038312     0.15400
C1289       C  0.62535511  0.36898524  0.23776118    -0.11900
C1290       C  0.65054225  0.36283313  0.25791977     0.14600
C1291       C  0.65207602  0.34170744  0.29087306     0.01500
C1292       C  0.62821525  0.32803092  0.30422404    -0.16300
C1293       C  0.60265159  0.33509722  0.28580289    -0.11100
C1294       C  0.60158572  0.35505114  0.25055544     0.08300
C1295       C  0.67465860  0.37915095  0.24429726     0.09300
S1296       S  0.68359416  0.33159555  0.31808797    -0.25400
H1297       H  0.62952110  0.31265820  0.33089848     0.19600
S1298       S  0.57083077  0.36320528  0.21947980    -0.31100
H1299       H  0.62426312  0.38467931  0.21158307     0.09900
C1300       C  0.69463705  0.36870973  0.21422509     0.03100
C1301       C  0.71782911  0.38446951  0.20435998    -0.13400
C1302       C  0.72136409  0.41064732  0.22356112    -0.09100
C1303       C  0.70096228  0.42118445  0.25307507     0.06500
C1304       C  0.67775230  0.40547051  0.26268870    -0.14100
S1305       S  0.69040651  0.33548130  0.18806100    -0.31100
H1306       H  0.73326394  0.37642370  0.18134089     0.10800
S1307       S  0.70420381  0.45357588  0.28198930    -0.28200
H1308       H  0.66237081  0.41343820  0.28594511     0.08000
H1309       H  0.56146897  0.33606329  0.21778721     0.26400
H1310       H  0.71445353  0.33597034  0.16153305     0.21200
H1311       H  0.73125333  0.44875671  0.29582648     0.26500
H1312       H  0.69704377  0.35684931  0.31483093     0.15400
C1313       C  0.84638646  0.33157051  0.28626546    -0.11900
C1314       C  0.87291962  0.33444545  0.30373267     0.14600
C1315       C  0.88388821  0.36086028  0.31026955     0.01500
C1316       C  0.86857052  0.38366672  0.29725607    -0.16300
C1317       C  0.84260370  0.38077741  0.27734165    -0.11100
C1318       C  0.83109424  0.35440419  0.27299394     0.08300
C1319       C  0.88894940  0.30940310  0.31245611     0.09300
S1320       S  0.91794668  0.36694406  0.33174564    -0.25400
H1321       H  0.87770531  0.40376483  0.30017364     0.19600
S1322       S  0.79695700  0.34964728  0.25057449    -0.31100
H1323       H  0.83797668  0.31126625  0.28199175     0.09900
C1324       C  0.88843646  0.29642861  0.35569722     0.03100
C1325       C  0.90310072  0.27218003  0.36197336    -0.13400
C1326       C  0.91852936  0.26059970  0.32592223    -0.09100
C1327       C  0.91913807  0.27391909  0.28265105     0.06500
C1328       C  0.90420628  0.29797211  0.27632009    -0.14100
S1329       S  0.86912888  0.31086954  0.40286562    -0.31100
H1330       H  0.90255553  0.26217467  0.39523121     0.10800
S1331       S  0.93688698  0.26018440  0.23343847    -0.28200
H1332       H  0.90433451  0.30780246  0.24286215     0.08000
H1333       H  0.79654967  0.32099593  0.25268905     0.26400
H1334       H  0.87873725  0.29307976  0.43718067     0.21200
H1335       H  0.96275801  0.26415989  0.25344746     0.26500
H1336       H  0.92108781  0.34240738  0.35590400     0.15400
C1337       C  0.91889994  0.41842425  0.96420023    -0.11900
C1338       C  0.92971761  0.41233359  0.00777831     0.14600
C1339       C  0.95044452  0.39260736  0.01147686     0.01500
C1340       C  0.95692229  0.37659296  0.97318316    -0.16300
C1341       C  0.94386306  0.38056356  0.93069412    -0.11100
C1342       C  0.92605928  0.40294377  0.92537669     0.08300
C1343       C  0.91309166  0.41922454  0.04856837     0.09300
S1344       S  0.96656816  0.38461862  0.06569001    -0.25400
H1345       H  0.97077680  0.35959768  0.97747816     0.19600
S1346       S  0.90841309  0.40976073  0.87217383    -0.31100
H1347       H  0.90278829  0.43342741  0.96127858     0.09900
C1348       C  0.91185631  0.44556240  0.06799032     0.03100
C1349       C  0.89363593  0.45054370  0.10462253    -0.13400
C1350       C  0.87644904  0.42972412  0.12090072    -0.09100
C1351       C  0.87885816  0.40316105  0.10267089     0.06500
C1352       C  0.89685649  0.39827901  0.06660020    -0.14100
S1353       S  0.93296974  0.47265375  0.04559124    -0.31100
H1354       H  0.89189841  0.47078052  0.11918020     0.10800
S1355       S  0.85934986  0.37464233  0.12400355    -0.28200
H1356       H  0.89794926  0.37795867  0.05185922     0.08000
H1357       H  0.93225510  0.40921349  0.84518821     0.26400
H1358       H  0.92319183  0.49323648  0.07516849     0.21200
H1359       H  0.86213771  0.38240219  0.17051470     0.26500
H1360       H  0.96125189  0.40994763  0.08672229     0.15400
C1361       C  0.60446699  0.57159038  0.74602696    -0.11900
C1362       C  0.60738839  0.58843601  0.70736055     0.14600
C1363       C  0.62769246  0.58245733  0.67422472     0.01500
C1364       C  0.64328677  0.55868223  0.67892902    -0.16300
C1365       C  0.63908844  0.54100884  0.71627337    -0.11100
C1366       C  0.62023592  0.54818396  0.75107812     0.08300
C1367       C  0.58671138  0.60998593  0.70110010     0.09300
S1368       S  0.63369072  0.60353206  0.62434587    -0.25400
H1369       H  0.65786187  0.55331334  0.65227799     0.19600
S1370       S  0.61507912  0.52803041  0.80237525    -0.31100
H1371       H  0.58911561  0.57627545  0.77180602     0.09900
C1372       C  0.56396584  0.60548725  0.67233894     0.03100
C1373       C  0.54150342  0.62294934  0.67560657    -0.13400
C1374       C  0.54077287  0.64419149  0.70823494    -0.09100
C1375       C  0.56427398  0.64962713  0.73497945     0.06500
C1376       C  0.58709525  0.63266240  0.73073087    -0.14100
S1377       S  0.56233657  0.57597889  0.63484212    -0.31100
H1378       H  0.52376481  0.61918786  0.65434504     0.10800
S1379       S  0.56535900  0.67577512  0.77860187    -0.28200
H1380       H  0.60446847  0.63588499  0.75325208     0.08000
H1381       H  0.64236140  0.51944919  0.80577217     0.26400
H1382       H  0.53615751  0.58093198  0.61685969     0.21200
H1383       H  0.54007343  0.66844176  0.79805354     0.26500
H1384       H  0.62328949  0.62775209  0.64341787     0.15400
C1385       C  0.60445131  0.34914465  0.79780226    -0.11900
C1386       C  0.61220576  0.32497234  0.77573524     0.14600
C1387       C  0.63265211  0.32555116  0.74156881     0.01500
C1388       C  0.64473307  0.35042856  0.72988761    -0.16300
C1389       C  0.63684150  0.37489828  0.75146409    -0.11100
C1390       C  0.61624641  0.37418270  0.78584456     0.08300
C1391       C  0.59785587  0.29968767  0.78851383     0.09300
S1392       S  0.64366931  0.29550679  0.71072487    -0.25400
H1393       H  0.66024072  0.35069948  0.70319361     0.19600
S1394       S  0.60295175  0.40487907  0.81221189    -0.31100
H1395       H  0.58853113  0.34832755  0.82370856     0.09900
C1396       C  0.60420049  0.28604861  0.82975327     0.03100
C1397       C  0.58949214  0.26262975  0.84167928    -0.13400
C1398       C  0.56837164  0.25280413  0.81340730    -0.09100
C1399       C  0.56238993  0.26624082  0.77162929     0.06500
C1400       C  0.57705189  0.28972188  0.75977584    -0.14100
S1401       S  0.63115054  0.29841056  0.86694249    -0.31100
H1402       H  0.59410699  0.25214857  0.87356923     0.10800
S1403       S  0.53728422  0.25369935  0.73135325    -0.28200
H1404       H  0.57238398  0.30020946  0.72788036     0.08000
H1405       H  0.58227116  0.39253435  0.83863962     0.26400
H1406       H  0.62719578  0.27941367  0.90263452     0.21200
H1407       H  0.54370079  0.22608908  0.73836997     0.26500
H1408       H  0.63776087  0.27660038  0.74569957     0.15400
C1409       C  0.56027810  0.41155013  0.58999310    -0.11900
C1410       C  0.56197510  0.42416704  0.54673241     0.14600
C1411       C  0.57779388  0.44805496  0.54169284     0.01500
C1412       C  0.59557373  0.45566129  0.57710102    -0.16300
C1413       C  0.59686356  0.44047576  0.61791817    -0.11100
C1414       C  0.57769432  0.41948691  0.62592552     0.08300
C1415       C  0.55506952  0.40722400  0.50627493     0.09300
S1416       S  0.57918211  0.46688306  0.48837969    -0.25400
H1417       H  0.60990042  0.47221172  0.57144417     0.19600
S1418       S  0.57821038  0.39994802  0.67874280    -0.31100
H1419       H  0.54786297  0.39336737  0.59367464     0.09900
C1420       C  0.57621702  0.39430199  0.48149502     0.03100
C1421       C  0.56962972  0.37557387  0.44709597    -0.13400
C1422       C  0.54247516  0.36829349  0.43811333    -0.09100
C1423       C  0.52121335  0.38095585  0.46314762     0.06500
C1424       C  0.52775435  0.40063016  0.49665368    -0.14100
S1425       S  0.61179005  0.39968776  0.49604325    -0.31100
H1426       H  0.58587883  0.36582385  0.42787919     0.10800
S1427       S  0.48581528  0.37153031  0.45657308    -0.28200
H1428       H  0.51161532  0.40987931  0.51685210     0.08000
H1429       H  0.55560606  0.38322743  0.66857434     0.26400
H1430       H  0.62289783  0.38025180  0.46564196     0.21200
H1431       H  0.49059594  0.34355058  0.44964720     0.26500
H1432       H  0.55415108  0.45715263  0.47109202     0.15400
C1433       C  0.84907288  0.36542552  0.71760224    -0.11900
C1434       C  0.83141501  0.37828071  0.74902873     0.14600
C1435       C  0.83762379  0.37763365  0.79654292     0.01500
C1436       C  0.86088786  0.36395742  0.81160690    -0.16300
C1437       C  0.87879165  0.35115826  0.78044428    -0.11100
C1438       C  0.87249996  0.35165499  0.73277270     0.08300
C1439       C  0.80568144  0.39057279  0.73212798     0.09300
S1440       S  0.81679937  0.39403873  0.83981910    -0.25400
H1441       H  0.86534309  0.36388717  0.84824879     0.19600
S1442       S  0.89236300  0.33376809  0.69004170    -0.31100
H1443       H  0.84409580  0.36541980  0.68115820     0.09900
C1444       C  0.80548245  0.41531943  0.70755526     0.03100
C1445       C  0.78043098  0.42702165  0.69508153    -0.13400
C1446       C  0.75546234  0.41471772  0.70724808    -0.09100
C1447       C  0.75586605  0.39006370  0.73258620     0.06500
C1448       C  0.78086050  0.37806055  0.74379058    -0.14100
S1449       S  0.83705913  0.43262620  0.69396858    -0.31100
H1450       H  0.78028343  0.44599589  0.67607491     0.10800
S1451       S  0.72548283  0.37391406  0.75482918    -0.28200
H1452       H  0.78101273  0.35931303  0.76351096     0.08000
H1453       H  0.89771497  0.31104674  0.71816040     0.26400
H1454       H  0.82530256  0.45567904  0.67322717     0.21200
H1455       H  0.71332678  0.39842519  0.76957124     0.26500
H1456       H  0.80816317  0.41570199  0.81176164     0.15400
C1457       C  0.69810498  0.46335057  0.92723214    -0.11900
C1458       C  0.72301970  0.47671349  0.93439194     0.14600
C1459       C  0.73622861  0.48960712  0.89719700     0.01500
C1460       C  0.72467431  0.48817235  0.85325728    -0.16300
C1461       C  0.70003260  0.47413720  0.84536945    -0.11100
C1462       C  0.68663010  0.46160984  0.88317886     0.08300
C1463       C  0.73627926  0.47402519  0.97966533     0.09300
S1464       S  0.76825242  0.50747294  0.90336852    -0.25400
H1465       H  0.73518120  0.49805129  0.82492632     0.19600
S1466       S  0.65639296  0.44100942  0.87730614    -0.31100
H1467       H  0.68826175  0.45301658  0.95579377     0.09900
C1468       C  0.72895884  0.49061430  0.01730627     0.03100
C1469       C  0.74195670  0.48683935  0.05986654    -0.13400
C1470       C  0.76192682  0.46659002  0.06547715    -0.09100
C1471       C  0.76960161  0.45047323  0.02703526     0.06500
C1472       C  0.75651612  0.45420295  0.98477953    -0.14100
S1473       S  0.70309810  0.51648280  0.01097011    -0.31100
H1474       H  0.73597340  0.49915599  0.08923660     0.10800
S1475       S  0.79656611  0.42562708  0.02901655    -0.28200
H1476       H  0.76227722  0.44169949  0.95544284     0.08000
H1477       H  0.66791836  0.42478471  0.84230297     0.26400
H1478       H  0.70408877  0.52622042  0.05666351     0.21200
H1479       H  0.81407802  0.44260643  0.05471604     0.26500
H1480       H  0.76415561  0.51581536  0.94929880     0.15400
C1481       C  0.74906334  0.50823421  0.39988763    -0.11900
C1482       C  0.75826847  0.49123210  0.43530159     0.14600
C1483       C  0.78062382  0.47372560  0.42712482     0.01500
C1484       C  0.79230297  0.47254987  0.38303811    -0.16300
C1485       C  0.78199534  0.48834915  0.34680810    -0.11100
C1486       C  0.76080282  0.50716496  0.35593014     0.08300
C1487       C  0.74173858  0.48927204  0.47781519     0.09300
S1488       S  0.79356759  0.45063727  0.47018480    -0.25400
H1489       H  0.80839221  0.45795323  0.37628030     0.19600
S1490       S  0.74736637  0.52983934  0.31266703    -0.31100
H1491       H  0.73196442  0.52172259  0.40611481     0.09900
C1492       C  0.74680317  0.50573997  0.51679884     0.03100
C1493       C  0.73191404  0.50113980  0.55753697    -0.13400
C1494       C  0.71182548  0.48062871  0.55957256    -0.09100
C1495       C  0.70520997  0.46600492  0.51886997     0.06500
C1496       C  0.72054453  0.47010609  0.47886918    -0.14100
S1497       S  0.77314231  0.53152386  0.51519322    -0.31100
H1498       H  0.73688664  0.51256844  0.58845762     0.10800
S1499       S  0.67718616  0.44219201  0.51544923    -0.28200
H1500       H  0.71601753  0.45815540  0.44825101     0.08000
H1501       H  0.77206775  0.53266640  0.28836394     0.26400
H1502       H  0.77053319  0.54001547  0.56140624     0.21200
H1503       H  0.66020958  0.45737478  0.54497252     0.26500
H1504       H  0.78668901  0.46656342  0.50878960     0.15400
loop_ 
_geom_bond_atom_site_label_1 
_geom_bond_atom_site_label_2 
_geom_bond_distance 
_geom_bond_site_symmetry_2 
_ccdc_geom_bond_type 
O1           C16   1.258       .  A
O1           Al9   1.904       .  S
C2           O12   1.260       .  A
C2            O3   1.258       .  A
C2         C1461   1.480       .  S
O3           Al5   1.879       .  S
O4            C6   1.269       .  A
O4           Al5   1.928       .  S
Al5          O13   1.919       .  S
Al5          O15   1.905       .  S
Al5          O14   1.785       .  S
C6           O19   1.265       .  A
C6         C1446   1.484       .  S
O7           C17   1.257       .  A
O7           Al9   1.907       .  S
O8           C21   1.266       .  A
O8          Al18   1.922       .  S
Al9          O22   1.886       .  S
Al9          O19   1.895       .  S
Al9          O14   1.781       .  S
O10          C17   1.253       .  A
O10         Al18   1.889       .  S
O11          C20   1.255       .  A
O11         Al18   1.870       .  S
O12         Al18   1.906       .  S
O13          C20   1.262       .  A
O14         Al18   1.786       .  S
O15          C16   1.258       .  A
C16        C1494   1.480       .  S
C17        C1389   1.480       .  S
C20        C1365   1.470       .  S
C21          O22   1.264       .  A
C21        C1413   1.465       .  S
O23          C38   1.258       .  A
O23         Al31   1.869       .  S
C24          O34   1.256       .  A
C24          O25   1.267       .  A
C24        C1485   1.475       .  S
O25         Al27   1.933       .  S
O26          C28   1.260       .  A
O26         Al27   1.909       .  S
Al27         O35   1.886       .  S
Al27         O37   1.931       .  S
Al27         O36   1.790       .  S
C28          O41   1.257       .  A
C28        C1317   1.481       .  S
O29          C39   1.258       .  A
O29         Al31   1.874       .  S
O30          C43   1.257       .  A
O30         Al40   1.889       .  S
Al31         O44   1.911       .  S
Al31         O41   1.895       .  S
Al31         O36   1.783       .  S
O32          C39   1.268       .  A
O32         Al40   1.941       .  S
O33          C42   1.261       .  A
O33         Al40   1.926       .  S
O34         Al40   1.865       .  S
O35          C42   1.256       .  A
O36         Al40   1.792       .  S
O37          C38   1.265       .  A
C38        C1350   1.466       .  S
C39        C1302   1.481       .  S
C42        C1269   1.475       .  S
C43          O44   1.260       .  A
C43        C1470   1.476       .  S
O45          C60   1.256       .  A
O45         Al53   1.886       .  S
C46          O56   1.266       .  A
C46          O47   1.261       .  A
C46        C1230   1.488       .  S
O47         Al49   1.903       .  S
O48          C50   1.262       .  A
O48         Al49   1.905       .  S
Al49         O57   1.915   1_655  S
Al49         O59   1.893       .  S
Al49         O58   1.782       .  S
C50          O63   1.263       .  A
C50        C1326   1.486       .  S
O51          C61   1.258       .  A
O51         Al53   1.895       .  S
O52          C65   1.262       .  A
O52         Al62   1.904       .  S
Al53         O66   1.910       .  S
Al53         O63   1.912       .  S
Al53         O58   1.782       .  S
O54          C61   1.258       .  A
O54         Al62   1.905       .  S
O55          C64   1.259       .  A
O55         Al62   1.898   1_455  S
O56         Al62   1.904       .  S
O57          C64   1.262       .  A
O58         Al62   1.786       .  S
O59          C60   1.259       .  A
C60        C1254   1.481       .  S
C61        C1182   1.479       .  S
C64        C1158   1.478       .  S
C65          O66   1.265       .  A
C65        C1206   1.469       .  S
O67          C82   1.262       .  A
O67         Al75   1.882       .  S
C68          O78   1.252       .  A
C68          O69   1.262       .  A
C68        C1245   1.467       .  S
O69         Al71   1.919       .  S
O70          C72   1.260       .  A
O70         Al71   1.910       .  S
Al71         O79   1.880       .  S
Al71         O81   1.933       .  S
Al71         O80   1.788       .  S
C72          O85   1.259       .  A
C72        C1437   1.485       .  S
O73          C83   1.263       .  A
O73         Al75   1.887       .  S
O74          C87   1.253       .  A
O74         Al84   1.889       .  S
Al75         O88   1.904       .  S
Al75         O85   1.904       .  S
Al75         O80   1.779       .  S
O76          C83   1.269       .  A
O76         Al84   1.929       .  S
O77          C86   1.262       .  A
O77         Al84   1.918   1_455  S
O78         Al84   1.855       .  S
O79          C86   1.258   1_655  A
O80         Al84   1.785       .  S
O81          C82   1.267       .  A
C82        C1341   1.471       .  S
C83        C1125   1.476       .  S
C86        C1101   1.477       .  S
C87          O88   1.259       .  A
C87        C1221   1.487       .  S
O89         C104   1.266       .  A
O89         Al97   1.889       .  S
C90         O100   1.252       .  A
C90          O91   1.261       .  A
C90        C1086   1.475       .  S
O91         Al93   1.913   1_565  S
O92          C94   1.257       .  A
O92         Al93   1.907       .  S
Al93        O101   1.870   1_545  S
Al93        O103   1.923       .  S
Al93        O102   1.792       .  S
C94         O107   1.255       .  A
C94        C1014   1.489       .  S
O95         C105   1.263       .  A
O95         Al97   1.879       .  S
O96         C109   1.253   1_565  A
O96        Al106   1.891       .  S
Al97        O110   1.896       .  S
Al97        O107   1.889       .  S
Al97        O102   1.786       .  S
O98         C105   1.272       .  A
O98        Al106   1.942   1_545  S
O99         C108   1.263       .  A
O99        Al106   1.925       .  S
O100       Al106   1.864       .  S
O101        C108   1.255       .  A
O102       Al106   1.796   1_545  S
O103        C104   1.266       .  A
C104       C1029   1.485       .  S
C105       C1173   1.480       .  S
C108        C981   1.477       .  S
C109        O110   1.253       .  A
C109       C1062   1.476   1_545  S
O111        C126   1.257       .  A
O111       Al119   1.890       .  S
C112        O122   1.264       .  A
C112        O113   1.262   1_545  A
C112       C1053   1.482   1_545  S
O113       Al115   1.899       .  S
O114        C116   1.262       .  A
O114       Al115   1.909   1_545  S
Al115       O123   1.915       .  S
Al115       O125   1.909   1_565  S
Al115       O124   1.783   1_565  S
C116        O129   1.264       .  A
C116        C957   1.497       .  S
O117        C127   1.257       .  A
O117       Al119   1.895       .  S
O118        C131   1.263       .  A
O118       Al128   1.902       .  S
Al119       O132   1.913       .  S
Al119       O129   1.911       .  S
Al119       O124   1.781       .  S
O120        C127   1.259       .  A
O120       Al128   1.910       .  S
O121        C130   1.262       .  A
O121       Al128   1.902   1_565  S
O122       Al128   1.908       .  S
O123        C130   1.265       .  A
O124       Al128   1.782       .  S
O125        C126   1.261       .  A
C126       C1077   1.483       .  S
C127       C1134   1.483       .  S
C130        C933   1.489       .  S
C131        O132   1.265       .  A
C131       C1197   1.470       .  S
O133        C148   1.262       .  A
O133       Al141   1.873       .  S
C134        O144   1.255       .  A
C134        O135   1.262       .  A
C134        C909   1.469       .  S
O135       Al137   1.916       .  S
O136        C138   1.254       .  A
O136       Al137   1.898       .  S
Al137       O145   1.868       .  S
Al137       O147   1.931       .  S
Al137       O146   1.783       .  S
C138        O151   1.253       .  A
C138        C966   1.490       .  S
O139        C149   1.264       .  A
O139       Al141   1.875       .  S
O140        C153   1.255       .  A
O140       Al150   1.904       .  S
Al141       O154   1.895       .  S
Al141       O151   1.908       .  S
Al141       O146   1.787       .  S
O142        C149   1.273       .  A
O142       Al150   1.942       .  S
O143        C152   1.261       .  A
O143       Al150   1.922       .  S
O144       Al150   1.867       .  S
O145        C152   1.253       .  A
O146       Al150   1.791       .  S
O147        C148   1.273       .  A
C148       C1038   1.485       .  S
C149       C1398   1.469       .  S
C152        C861   1.479       .  S
C153        O154   1.253       .  A
C153        C885   1.474       .  S
O155        C170   1.258       .  A
O155       Al163   1.891       .  S
C156        O166   1.263       .  A
C156        O157   1.265       .  A
C156        C894   1.469       .  S
O157       Al159   1.912       .  S
O158        C160   1.262       .  A
O158       Al159   1.907       .  S
Al159       O167   1.929       .  S
Al159       O169   1.903       .  S
Al159       O168   1.786       .  S
C160        O173   1.260       .  A
C160       C1005   1.480       .  S
O161        C171   1.257       .  A
O161       Al163   1.900       .  S
O162        C175   1.264       .  A
O162       Al172   1.899       .  S
Al163       O176   1.897       .  S
Al163       O173   1.898       .  S
Al163       O168   1.782       .  S
O164        C171   1.257       .  A
O164       Al172   1.908       .  S
O165        C174   1.259       .  A
O165       Al172   1.903       .  S
O166       Al172   1.894       .  S
O167        C174   1.263       .  A
O168       Al172   1.790       .  S
O169        C170   1.260       .  A
C170        C918   1.482       .  S
C171       C1293   1.486       .  S
C174        C837   1.482       .  S
C175        O176   1.265       .  A
C175       C1422   1.469       .  S
O177        C192   1.264       .  A
O177       Al185   1.872       .  S
C178        O188   1.252       .  A
C178        O179   1.263       .  A
C178        C765   1.477       .  S
O179       Al181   1.917       .  S
O180        C182   1.258       .  A
O180       Al181   1.907       .  S
Al181       O189   1.869       .  S
Al181       O191   1.937       .  S
Al181       O190   1.784       .  S
C182        O195   1.255       .  A
C182        C717   1.489       .  S
O183        C193   1.265       .  A
O183       Al185   1.885       .  S
O184        C197   1.254       .  A
O184       Al194   1.894       .  S
Al185       O198   1.906       .  S
Al185       O195   1.906       .  S
Al185       O190   1.779       .  S
O186        C193   1.274       .  A
O186       Al194   1.942       .  S
O187        C196   1.264       .  A
O187       Al194   1.926   1_545  S
O188       Al194   1.861       .  S
O189        C196   1.255   1_565  A
O190       Al194   1.782       .  S
O191        C192   1.270       .  A
C192        C741   1.470       .  S
C193        C813   1.480       .  S
C196       C1149   1.478       .  S
C197        O198   1.256       .  A
C197        C789   1.476       .  S
O199        C214   1.257       .  A
O199       Al207   1.899       .  S
C200        O210   1.265       .  A
C200        O201   1.256       .  A
C200        C798   1.473       .  S
O201       Al203   1.862       .  S
O202        C204   1.273       .  A
O202       Al203   1.947       .  S
Al203       O211   1.929   1_565  S
Al203       O213   1.899       .  S
Al203       O212   1.783       .  S
C204        O217   1.263       .  A
C204        C654   1.486       .  S
O205        C215   1.256       .  A
O205       Al207   1.906       .  S
O206        C219   1.270       .  A
O206       Al216   1.939       .  S
Al207       O220   1.884       .  S
Al207       O217   1.882       .  S
Al207       O212   1.779       .  S
O208        C215   1.257       .  A
O208       Al216   1.892       .  S
O209        C218   1.255   1_565  A
O209       Al216   1.874       .  S
O210       Al216   1.931       .  S
O211        C218   1.263       .  A
O212       Al216   1.783       .  S
O213        C214   1.256       .  A
C214        C774   1.467       .  S
C215        C678   1.486       .  S
C218        C870   1.470       .  S
C219        O220   1.264       .  A
C219        C693   1.487       .  S
O221        C236   1.260       .  A
O221       Al229   1.867       .  S
C222        O232   1.256       .  A
C222        O223   1.267       .  A
C222        C621   1.489       .  S
O223       Al225   1.940       .  S
O224        C226   1.261       .  A
O224       Al225   1.909       .  S
Al225       O233   1.871       .  S
Al225       O235   1.946       .  S
Al225       O234   1.789       .  S
C226        O239   1.259       .  A
C226        C549   1.489       .  S
O227        C237   1.260       .  A
O227       Al229   1.876       .  S
O228        C241   1.258       .  A
O228       Al238   1.905       .  S
Al229       O242   1.904       .  S
Al229       O239   1.902       .  S
Al229       O234   1.773       .  S
O230        C237   1.270       .  A
O230       Al238   1.938       .  S
O231        C240   1.265       .  A
O231       Al238   1.934       .  S
O232       Al238   1.876       .  S
O233        C240   1.257       .  A
O234       Al238   1.787       .  S
O235        C236   1.269       .  A
C236        C573   1.481       .  S
C237        C669   1.478       .  S
C240       C1374   1.479       .  S
C241        O242   1.258       .  A
C241        C597   1.475       .  S
O243        C258   1.257       .  A
O243       Al251   1.887       .  S
C244        O254   1.265       .  A
C244        O245   1.268       .  A
C244        C606   1.481       .  S
O245       Al247   1.922       .  S
O246        C248   1.262       .  A
O246       Al247   1.904       .  S
Al247       O255   1.913       .  S
Al247       O257   1.921       .  S
Al247       O256   1.788       .  S
C248        O261   1.260       .  A
C248        C534   1.479       .  S
O249        C259   1.257       .  A
O249       Al251   1.904       .  S
O250        C263   1.264       .  A
O250       Al260   1.910       .  S
Al251       O264   1.904       .  S
Al251       O261   1.896       .  S
Al251       O256   1.777       .  S
O252        C259   1.259       .  A
O252       Al260   1.914       .  S
O253        C262   1.259       .  A
O253       Al260   1.901       .  S
O254       Al260   1.900       .  S
O255        C262   1.261       .  A
O256       Al260   1.790       .  S
O257        C258   1.262       .  A
C258        C630   1.484       .  S
C259        C822   1.481       .  S
C262        C990   1.479       .  S
C263        O264   1.266       .  A
C263        C702   1.479       .  S
O265        C280   1.256       .  A
O265       Al273   1.901       .  S
C266        O276   1.265       .  A
C266        O267   1.257       .  A
C266        C486   1.477       .  S
O267       Al269   1.865       .  S
O268        C270   1.269       .  A
O268       Al269   1.933       .  S
Al269       O277   1.914   1_455  S
Al269       O279   1.896   1_455  S
Al269       O278   1.788       .  S
C270        O283   1.266       .  A
C270        C726   1.482       .  S
O271        C281   1.254       .  A
O271       Al273   1.902       .  S
O272        C285   1.271       .  A
O272       Al282   1.928       .  S
Al273       O286   1.879       .  S
Al273       O283   1.895       .  S
Al273       O278   1.785       .  S
O274        C281   1.254       .  A
O274       Al282   1.898       .  S
O275        C284   1.253       .  A
O275       Al282   1.873   1_655  S
O276       Al282   1.920       .  S
O277        C284   1.257       .  A
O278       Al282   1.785       .  S
O279        C280   1.258   1_655  A
C280        C510   1.484       .  S
C281        C438   1.486       .  S
C284       C1278   1.477       .  S
C285        O286   1.263       .  A
C285        C462   1.483       .  S
O287        C302   1.257       .  A
O287       Al295   1.869       .  S
C288        O298   1.256       .  A
C288        O289   1.264   1_655  A
C288        C501   1.468       .  S
O289       Al291   1.920       .  S
O290        C292   1.261       .  A
O290       Al291   1.909       .  S
Al291       O299   1.872   1_455  S
Al291       O301   1.923       .  S
Al291       O300   1.784       .  S
C292        O305   1.261       .  A
C292        C645   1.484       .  S
O293        C303   1.257       .  A
O293       Al295   1.874       .  S
O294        C307   1.256   1_655  A
O294       Al304   1.886       .  S
Al295       O308   1.916       .  S
Al295       O305   1.901       .  S
Al295       O300   1.773       .  S
O296        C303   1.268       .  A
O296       Al304   1.940   1_455  S
O297        C306   1.264       .  A
O297       Al304   1.934       .  S
O298       Al304   1.864       .  S
O299        C306   1.256       .  A
O300       Al304   1.786   1_455  S
O301        C302   1.265       .  A
C302        C750   1.469       .  S
C303        C414   1.474       .  S
C306        C942   1.473       .  S
C307        O308   1.262       .  A
C307        C477   1.467       .  S
O309        C324   1.264       .  A
O309       Al317   1.884       .  S
C310        O320   1.255       .  A
C310        O311   1.262       .  A
C310        C390   1.478       .  S
O311       Al313   1.918       .  S
O312        C314   1.257       .  A
O312       Al313   1.909       .  S
Al313       O321   1.876       .  S
Al313       O323   1.926       .  S
Al313       O322   1.797       .  S
C314        O327   1.249       .  A
C314        C525   1.491       .  S
O315        C325   1.265       .  A
O315       Al317   1.887       .  S
O316        C329   1.253       .  A
O316       Al326   1.898       .  S
Al317       O330   1.882       .  S
Al317       O327   1.882       .  S
Al317       O322   1.786       .  S
O318        C325   1.272       .  A
O318       Al326   1.940       .  S
O319        C328   1.262       .  A
O319       Al326   1.924       .  S
O320       Al326   1.870       .  S
O321        C328   1.256       .  A
O322       Al326   1.797       .  S
O323        C324   1.269       .  A
C324        C582   1.473       .  S
C325        C429   1.483       .  S
C328        C846   1.488       .  S
C329        O330   1.250       .  A
C329        C366   1.468       .  S
O331        C346   1.258       .  A
O331       Al339   1.880       .  S
C332        O342   1.264       .  A
C332        O333   1.263       .  A
C332        C357   1.477       .  S
O333       Al335   1.906       .  S
O334        C336   1.264       .  A
O334       Al335   1.914       .  S
Al335       O343   1.924       .  S
Al335       O345   1.919       .  S
Al335       O344   1.788       .  S
C336        O349   1.259       .  A
C336        C558   1.492       .  S
O337        C347   1.258       .  A
O337       Al339   1.899       .  S
O338        C351   1.263       .  A
O338       Al348   1.909       .  S
Al339       O352   1.901       .  S
Al339       O349   1.901       .  S
Al339       O344   1.778       .  S
O340        C347   1.258       .  A
O340       Al348   1.903       .  S
O341        C350   1.259       .  A
O341       Al348   1.889       .  S
O342       Al348   1.902       .  S
O343        C350   1.265       .  A
O344       Al348   1.788       .  S
O345        C346   1.261       .  A
C346        C381   1.489       .  S
C347        C405   1.471       .  S
C350       C1110   1.478       .  S
C351        O352   1.262       .  A
C351        C453   1.470       .  S
C353        C354   1.397       .  A
C353        C358   1.396       .  A
C353        H363   1.084       .  S
C354        C359   1.472       .  S
C354        C355   1.412       .  A
C355        C356   1.398       .  A
C355        S360   1.804       .  S
C356        C357   1.403       .  A
C356        H361   1.084       .  S
C357        C358   1.419       .  A
C358        S362   1.803       .  S
C359        C364   1.408       .  A
C359        C368   1.401       .  A
S360        H376   1.405       .  S
S362        H373   1.402       .  S
C364        C365   1.397       .  A
C364        S369   1.808       .  S
C365        C366   1.402       .  A
C365        H370   1.082       .  S
C366        C367   1.413       .  A
C367        C368   1.399       .  A
C367        S371   1.801       .  S
C368        H372   1.083       .  S
S369        H374   1.407       .  S
S371        H375   1.406       .  S
C377        C378   1.402       .  A
C377        C382   1.402   1_554  A
C377        H387   1.084       .  S
C378        C383   1.480       .  S
C378        C379   1.410       .  A
C379        C380   1.395       .  A
C379        S384   1.806       .  S
C380        C381   1.408   1_554  A
C380        H385   1.083       .  S
C381        C382   1.419       .  A
C382        S386   1.801       .  S
C383        C388   1.408       .  A
C383        C392   1.403       .  A
S384        H400   1.406       .  S
S386        H397   1.406       .  S
C388        C389   1.402       .  A
C388        S393   1.807       .  S
C389        C390   1.406       .  A
C389        H394   1.083       .  S
C390        C391   1.413       .  A
C391        C392   1.400       .  A
C391        S395   1.801       .  S
C392        H396   1.084       .  S
S393        H398   1.407       .  S
S395        H399   1.407       .  S
C401        C402   1.405       .  A
C401        C406   1.401       .  A
C401        H411   1.084       .  S
C402        C407   1.479       .  S
C402        C403   1.411       .  A
C403        C404   1.395       .  A
C403        S408   1.804       .  S
C404        C405   1.403       .  A
C404        H409   1.085       .  S
C405        C406   1.411       .  A
C406        S410   1.803       .  S
C407        C412   1.409       .  A
C407        C416   1.403       .  A
S408        H424   1.406       .  S
S410        H421   1.407       .  S
C412        C413   1.402       .  A
C412        S417   1.807       .  S
C413        C414   1.406       .  A
C413        H418   1.083       .  S
C414        C415   1.412       .  A
C415        C416   1.398       .  A
C415        S419   1.803       .  S
C416        H420   1.084       .  S
S417        H422   1.407       .  S
S419        H423   1.407       .  S
C425        C426   1.400       .  A
C425        C430   1.398       .  A
C425        H435   1.084       .  S
C426        C431   1.481       .  S
C426        C427   1.414       .  A
C427        C428   1.403       .  A
C427        S432   1.805       .  S
C428        C429   1.406       .  A
C428        H433   1.084       .  S
C429        C430   1.417       .  A
C430        S434   1.803       .  S
C431        C436   1.408       .  A
C431        C440   1.400       .  A
S432        H448   1.405       .  S
S434        H445   1.407       .  S
C436        C437   1.405       .  A
C436        S441   1.806       .  S
C437        C438   1.408       .  A
C437        H442   1.083       .  S
C438        C439   1.418       .  A
C439        C440   1.399       .  A
C439        S443   1.803       .  S
C440        H444   1.084       .  S
S441        H446   1.407       .  S
S443        H447   1.407       .  S
C449        C450   1.403       .  A
C449        C454   1.391   1_554  A
C449        H459   1.083       .  S
C450        C455   1.486       .  S
C450        C451   1.417   1_554  A
C451        C452   1.404       .  A
C451        S456   1.803       .  S
C452        C453   1.403       .  A
C452        H457   1.084       .  S
C453        C454   1.409       .  A
C454        S458   1.801   1_556  S
C455        C460   1.412       .  A
C455        C464   1.403       .  A
S456        H472   1.407       .  S
S458        H469   1.407   1_554  S
C460        C461   1.403       .  A
C460        S465   1.807       .  S
C461        C462   1.406       .  A
C461        H466   1.082       .  S
C462        C463   1.416       .  A
C463        C464   1.396       .  A
C463        S467   1.805       .  S
C464        H468   1.083   1_554  S
S465        H470   1.407       .  S
S467        H471   1.408       .  S
C473        C474   1.401   1_455  A
C473        C478   1.394       .  A
C473        H483   1.084       .  S
C474        C479   1.473       .  S
C474        C475   1.411       .  A
C475        C476   1.399       .  A
C475        S480   1.803       .  S
C476        C477   1.402   1_655  A
C476        H481   1.084       .  S
C477        C478   1.410       .  A
C478        S482   1.799       .  S
C479        C484   1.406       .  A
C479        C488   1.401   1_655  A
S480        H496   1.406       .  S
S482        H493   1.407       .  S
C484        C485   1.398       .  A
C484        S489   1.807       .  S
C485        C486   1.407   1_655  A
C485        H490   1.083       .  S
C486        C487   1.414       .  A
C487        C488   1.398       .  A
C487        S491   1.800       .  S
C488        H492   1.084       .  S
S489        H494   1.407       .  S
S491        H495   1.407       .  S
C497        C498   1.400       .  A
C497        C502   1.394       .  A
C497        H507   1.084       .  S
C498        C503   1.473       .  S
C498        C499   1.413   1_655  A
C499        C500   1.395       .  A
C499        S504   1.804       .  S
C500        C501   1.401   1_455  A
C500        H505   1.084       .  S
C501        C502   1.414       .  A
C502        S506   1.804       .  S
C503        C508   1.405   1_556  A
C503        C512   1.397   1_655  A
S504        H520   1.406   1_556  S
S506        H517   1.407       .  S
C508        C509   1.401       .  A
C508        S513   1.806       .  S
C509        C510   1.409   1_655  A
C509        H514   1.082       .  S
C510        C511   1.422       .  A
C511        C512   1.396   1_554  A
C511        S515   1.812       .  S
C512        H516   1.083       .  S
S513        H518   1.407       .  S
S515        H519   1.406   1_554  S
C521        C522   1.396       .  A
C521        C526   1.395       .  A
C521        H531   1.084       .  S
C522        C527   1.479       .  S
C522        C523   1.412       .  A
C523        C524   1.403       .  A
C523        S528   1.804       .  S
C524        C525   1.408       .  A
C524        H529   1.083       .  S
C525        C526   1.424       .  A
C526        S530   1.803       .  S
C527        C532   1.408       .  A
C527        C536   1.401       .  A
S528        H544   1.405       .  S
S530        H541   1.409       .  S
C532        C533   1.401       .  A
C532        S537   1.807       .  S
C533        C534   1.406       .  A
C533        H538   1.083       .  S
C534        C535   1.415       .  A
C535        C536   1.399       .  A
C535        S539   1.801       .  S
C536        H540   1.084       .  S
S537        H542   1.407       .  S
S539        H543   1.407       .  S
C545        C546   1.404       .  A
C545        C550   1.405       .  A
C545        H555   1.084       .  S
C546        C551   1.481       .  S
C546        C547   1.409       .  A
C547        C548   1.395       .  A
C547        S552   1.806       .  S
C548        C549   1.410       .  A
C548        H553   1.084       .  S
C549        C550   1.416       .  A
C550        S554   1.802       .  S
C551        C556   1.408       .  A
C551        C560   1.398       .  A
S552        H568   1.405       .  S
S554        H565   1.407       .  S
C556        C557   1.405       .  A
C556        S561   1.806       .  S
C557        C558   1.408       .  A
C557        H562   1.082       .  S
C558        C559   1.423       .  A
C559        C560   1.403       .  A
C559        S563   1.811       .  S
C560        H564   1.083       .  S
S561        H566   1.407       .  S
S563        H567   1.406       .  S
C569        C570   1.402       .  A
C569        C574   1.404       .  A
C569        H579   1.084       .  S
C570        C575   1.474       .  S
C570        C571   1.407       .  A
C571        C572   1.392       .  A
C571        S576   1.811       .  S
C572        C573   1.406       .  A
C572        H577   1.083       .  S
C573        C574   1.417       .  A
C574        S578   1.800       .  S
C575        C580   1.409       .  A
C575        C584   1.400       .  A
S576        H592   1.406       .  S
S578        H589   1.401       .  S
C580        C581   1.401       .  A
C580        S585   1.806       .  S
C581        C582   1.404       .  A
C581        H586   1.082       .  S
C582        C583   1.413       .  A
C583        C584   1.397       .  A
C583        S587   1.803       .  S
C584        H588   1.083       .  S
S585        H590   1.407       .  S
S587        H591   1.408       .  S
C593        C594   1.401       .  A
C593        C598   1.395       .  A
C593        H603   1.084       .  S
C594        C599   1.480       .  S
C594        C595   1.413       .  A
C595        C596   1.404       .  A
C595        S600   1.803       .  S
C596        C597   1.405       .  A
C596        H601   1.084       .  S
C597        C598   1.412       .  A
C598        S602   1.802       .  S
C599        C604   1.407       .  A
C599        C608   1.402       .  A
S600        H616   1.405       .  S
S602        H613   1.407       .  S
C604        C605   1.403       .  A
C604        S609   1.806       .  S
C605        C606   1.407       .  A
C605        H610   1.083       .  S
C606        C607   1.416       .  A
C607        C608   1.400       .  A
C607        S611   1.803       .  S
C608        H612   1.084       .  S
S609        H614   1.407       .  S
S611        H615   1.408       .  S
C617        C618   1.398       .  A
C617        C622   1.397       .  A
C617        H627   1.084       .  S
C618        C623   1.485   1_556  S
C618        C619   1.414       .  A
C619        C620   1.405       .  A
C619        S624   1.803       .  S
C620        C621   1.407       .  A
C620        H625   1.083       .  S
C621        C622   1.421       .  A
C622        S626   1.804       .  S
C623        C628   1.411       .  A
C623        C632   1.400       .  A
S624        H640   1.407   1_556  S
S626        H637   1.403       .  S
C628        C629   1.408       .  A
C628        S633   1.805       .  S
C629        C630   1.406       .  A
C629        H634   1.083       .  S
C630        C631   1.418       .  A
C631        C632   1.397       .  A
C631        S635   1.802       .  S
C632        H636   1.084   1_554  S
S633        H638   1.407       .  S
S635        H639   1.407       .  S
C641        C642   1.407       .  A
C641        C646   1.408       .  A
C641        H651   1.083       .  S
C642        C647   1.482       .  S
C642        C643   1.408       .  A
C643        C644   1.390       .  A
C643        S648   1.806       .  S
C644        C645   1.406       .  A
C644        H649   1.081       .  S
C645        C646   1.416       .  A
C646        S650   1.802       .  S
C647        C652   1.408       .  A
C647        C656   1.402       .  A
S648        H664   1.406       .  S
S650        H661   1.407       .  S
C652        C653   1.405       .  A
C652        S657   1.806       .  S
C653        C654   1.408       .  A
C653        H658   1.081       .  S
C654        C655   1.417       .  A
C655        C656   1.398       .  A
C655        S659   1.805       .  S
C656        H660   1.084       .  S
S657        H662   1.407       .  S
S659        H663   1.408       .  S
C665        C666   1.400       .  A
C665        C670   1.396       .  A
C665        H675   1.084       .  S
C666        C671   1.478       .  S
C666        C667   1.412       .  A
C667        C668   1.399       .  A
C667        S672   1.804       .  S
C668        C669   1.404       .  A
C668        H673   1.084       .  S
C669        C670   1.418       .  A
C670        S674   1.803       .  S
C671        C676   1.407       .  A
C671        C680   1.400       .  A
S672        H688   1.406       .  S
S674        H685   1.407       .  S
C676        C677   1.399       .  A
C676        S681   1.807       .  S
C677        C678   1.406       .  A
C677        H682   1.080       .  S
C678        C679   1.422       .  A
C679        C680   1.402       .  A
C679        S683   1.811       .  S
C680        H684   1.083       .  S
S681        H686   1.407       .  S
S683        H687   1.407       .  S
C689        C690   1.401   1_556  A
C689        C694   1.404       .  A
C689        H699   1.084       .  S
C690        C695   1.476       .  S
C690        C691   1.411       .  A
C691        C692   1.393   1_554  A
C691        S696   1.807       .  S
C692        C693   1.406       .  A
C692        H697   1.083   1_556  S
C693        C694   1.419       .  A
C694        S698   1.802       .  S
C695        C700   1.407       .  A
C695        C704   1.403       .  A
S696        H712   1.403       .  S
S698        H709   1.408       .  S
C700        C701   1.397       .  A
C700        S705   1.808   1_554  S
C701        C702   1.405       .  A
C701        H706   1.083       .  S
C702        C703   1.414       .  A
C703        C704   1.404       .  A
C703        S707   1.799       .  S
C704        H708   1.083       .  S
S705        H710   1.407       .  S
S707        H711   1.407       .  S
C713        C714   1.397       .  A
C713        C718   1.395       .  A
C713        H723   1.085       .  S
C714        C719   1.476       .  S
C714        C715   1.411       .  A
C715        C716   1.403       .  A
C715        S720   1.805       .  S
C716        C717   1.409       .  A
C716        H721   1.084       .  S
C717        C718   1.421       .  A
C718        S722   1.803       .  S
C719        C724   1.407       .  A
C719        C728   1.400       .  A
S720        H736   1.404       .  S
S722        H733   1.405       .  S
C724        C725   1.402       .  A
C724        S729   1.806       .  S
C725        C726   1.406       .  A
C725        H730   1.083       .  S
C726        C727   1.417       .  A
C727        C728   1.399       .  A
C727        S731   1.801       .  S
C728        H732   1.084       .  S
S729        H734   1.407       .  S
S731        H735   1.406       .  S
C737        C738   1.403       .  A
C737        C742   1.398       .  A
C737        H747   1.086       .  S
C738        C743   1.468       .  S
C738        C739   1.410       .  A
C739        C740   1.392       .  A
C739        S744   1.804       .  S
C740        C741   1.402       .  A
C740        H745   1.086       .  S
C741        C742   1.413       .  A
C742        S746   1.802       .  S
C743        C748   1.405       .  A
C743        C752   1.398       .  A
S744        H760   1.403       .  S
S746        H757   1.407       .  S
C748        C749   1.404       .  A
C748        S753   1.803       .  S
C749        C750   1.407       .  A
C749        H754   1.083       .  S
C750        C751   1.415       .  A
C751        C752   1.386       .  A
C751        S755   1.804       .  S
C752        H756   1.085       .  S
S753        H758   1.407       .  S
S755        H759   1.401       .  S
C761        C762   1.398       .  A
C761        C766   1.392       .  A
C761        H771   1.085       .  S
C762        C767   1.471       .  S
C762        C763   1.410       .  A
C763        C764   1.399       .  A
C763        S768   1.804   1_565  S
C764        C765   1.405       .  A
C764        H769   1.084       .  S
C765        C766   1.419       .  A
C766        S770   1.803       .  S
C767        C772   1.410   1_565  A
C767        C776   1.398       .  A
S768        H784   1.406       .  S
S770        H781   1.402       .  S
C772        C773   1.403       .  A
C772        S777   1.805       .  S
C773        C774   1.402   1_544  A
C773        H778   1.082   1_554  S
C774        C775   1.413       .  A
C775        C776   1.391   1_556  A
C775        S779   1.801       .  S
C776        H780   1.084       .  S
S777        H782   1.407       .  S
S779        H783   1.402       .  S
C785        C786   1.400       .  A
C785        C790   1.394       .  A
C785        H795   1.084       .  S
C786        C791   1.473       .  S
C786        C787   1.410       .  A
C787        C788   1.400       .  A
C787        S792   1.804   1_565  S
C788        C789   1.407       .  A
C788        H793   1.084   1_565  S
C789        C790   1.414       .  A
C790        S794   1.802       .  S
C791        C796   1.406   1_565  A
C791        C800   1.402       .  A
S792        H808   1.405       .  S
S794        H805   1.404       .  S
C796        C797   1.398   1_545  A
C796        S801   1.807       .  S
C797        C798   1.405       .  A
C797        H802   1.083   1_565  S
C798        C799   1.411       .  A
C799        C800   1.400       .  A
C799        S803   1.797       .  S
C800        H804   1.084       .  S
S801        H806   1.407       .  S
S803        H807   1.407       .  S
C809        C810   1.404       .  A
C809        C814   1.402       .  A
C809        H819   1.084       .  S
C810        C815   1.486       .  S
C810        C811   1.413       .  A
C811        C812   1.398       .  A
C811        S816   1.804       .  S
C812        C813   1.403       .  A
C812        H817   1.084       .  S
C813        C814   1.418       .  A
C814        S818   1.807       .  S
C815        C820   1.413       .  A
C815        C824   1.400       .  A
S816        H832   1.406       .  S
S818        H829   1.404       .  S
C820        C821   1.408       .  A
C820        S825   1.806       .  S
C821        C822   1.405       .  A
C821        H826   1.083       .  S
C822        C823   1.415       .  A
C823        C824   1.395       .  A
C823        S827   1.799       .  S
C824        H828   1.084       .  S
S825        H830   1.407       .  S
S827        H831   1.405       .  S
C833        C834   1.400       .  A
C833        C838   1.395       .  A
C833        H843   1.084       .  S
C834        C839   1.492       .  S
C834        C835   1.418       .  A
C835        C836   1.409       .  A
C835        S840   1.803       .  S
C836        C837   1.405       .  A
C836        H841   1.084       .  S
C837        C838   1.414       .  A
C838        S842   1.801       .  S
C839        C844   1.412       .  A
C839        C848   1.408       .  A
S840        H856   1.406       .  S
S842        H853   1.405       .  S
C844        C845   1.402       .  A
C844        S849   1.809       .  S
C845        C846   1.407       .  A
C845        H850   1.083       .  S
C846        C847   1.414       .  A
C847        C848   1.406       .  A
C847        S851   1.802       .  S
C848        H852   1.084       .  S
S849        H854   1.407       .  S
S851        H855   1.407       .  S
C857        C858   1.400       .  A
C857        C862   1.396       .  A
C857        H867   1.084       .  S
C858        C863   1.484       .  S
C858        C859   1.415       .  A
C859        C860   1.405       .  A
C859        S864   1.803       .  S
C860        C861   1.404       .  A
C860        H865   1.084       .  S
C861        C862   1.415       .  A
C862        S866   1.804       .  S
C863        C868   1.412       .  A
C863        C872   1.405       .  A
S864        H880   1.406       .  S
S866        H877   1.408       .  S
C868        C869   1.402       .  A
C868        S873   1.808       .  S
C869        C870   1.402       .  A
C869        H874   1.084       .  S
C870        C871   1.410       .  A
C871        C872   1.402       .  A
C871        S875   1.802       .  S
C872        H876   1.084       .  S
S873        H878   1.407       .  S
S875        H879   1.404       .  S
C881        C882   1.399       .  A
C881        C886   1.397   1_554  A
C881        H891   1.083       .  S
C882        C887   1.476       .  S
C882        C883   1.413       .  A
C883        C884   1.400   1_554  A
C883        S888   1.804       .  S
C884        C885   1.403       .  A
C884        H889   1.084       .  S
C885        C886   1.414       .  A
C886        S890   1.810       .  S
C887        C892   1.408       .  A
C887        C896   1.403       .  A
S888        H904   1.406       .  S
S890        H901   1.407       .  S
C892        C893   1.397       .  A
C892        S897   1.809       .  S
C893        C894   1.404       .  A
C893        H898   1.083       .  S
C894        C895   1.414       .  A
C895        C896   1.399       .  A
C895        S899   1.806       .  S
C896        H900   1.084       .  S
S897        H902   1.407       .  S
S899        H903   1.399       .  S
C905        C906   1.401       .  A
C905        C910   1.396       .  A
C905        H915   1.084       .  S
C906        C911   1.476       .  S
C906        C907   1.415       .  A
C907        C908   1.402       .  A
C907        S912   1.808       .  S
C908        C909   1.402       .  A
C908        H913   1.084       .  S
C909        C910   1.411       .  A
C910        S914   1.804       .  S
C911        C916   1.406       .  A
C911        C920   1.401       .  A
S912        H928   1.401       .  S
S914        H925   1.407       .  S
C916        C917   1.402       .  A
C916        S921   1.806       .  S
C917        C918   1.408       .  A
C917        H922   1.083       .  S
C918        C919   1.416       .  A
C919        C920   1.399       .  A
C919        S923   1.803       .  S
C920        H924   1.084       .  S
S921        H926   1.407       .  S
S923        H927   1.407       .  S
C929        C930   1.404       .  A
C929        C934   1.404       .  A
C929        H939   1.083       .  S
C930        C935   1.482       .  S
C930        C931   1.409       .  A
C931        C932   1.399       .  A
C931        S936   1.810       .  S
C932        C933   1.409       .  A
C932        H937   1.082       .  S
C933        C934   1.416       .  A
C934        S938   1.801       .  S
C935        C940   1.412       .  A
C935        C944   1.401       .  A
S936        H952   1.407       .  S
S938        H949   1.408       .  S
C940        C941   1.406       .  A
C940        S945   1.805       .  S
C941        C942   1.404       .  A
C941        H946   1.083       .  S
C942        C943   1.412       .  A
C943        C944   1.396       .  A
C943        S947   1.805       .  S
C944        H948   1.084       .  S
S945        H950   1.407       .  S
S947        H951   1.408       .  S
C953        C954   1.403       .  A
C953        C958   1.409       .  A
C953        H963   1.083       .  S
C954        C959   1.484       .  S
C954        C955   1.408       .  A
C955        C956   1.397       .  A
C955        S960   1.805       .  S
C956        C957   1.410       .  A
C956        H961   1.083       .  S
C957        C958   1.421       .  A
C958        S962   1.809       .  S
C959        C964   1.409       .  A
C959        C968   1.400       .  A
S960        H976   1.405       .  S
S962        H973   1.406       .  S
C964        C965   1.404       .  A
C964        S969   1.806       .  S
C965        C966   1.407       .  A
C965        H970   1.083       .  S
C966        C967   1.421       .  A
C967        C968   1.401       .  A
C967        S971   1.803       .  S
C968        H972   1.084       .  S
S969        H974   1.407       .  S
S971        H975   1.408       .  S
C977        C978   1.401       .  A
C977        C982   1.395       .  A
C977        H987   1.084       .  S
C978        C983   1.484       .  S
C978        C979   1.415       .  A
C979        C980   1.405       .  A
C979        S984   1.803       .  S
C980        C981   1.404       .  A
C980        H985   1.084       .  S
C981        C982   1.414       .  A
C982        S986   1.806       .  S
C983        C988   1.411       .  A
C983        C992   1.406       .  A
S984       H1000   1.406       .  S
S986        H997   1.407       .  S
C988        C989   1.399       .  A
C988        S993   1.809       .  S
C989        C990   1.404       .  A
C989        H994   1.083       .  S
C990        C991   1.413       .  A
C991        C992   1.405       .  A
C991        S995   1.803       .  S
C992        H996   1.084       .  S
S993        H998   1.406       .  S
S995        H999   1.407       .  S
C1001      C1002   1.400       .  A
C1001      C1006   1.396       .  A
C1001      H1011   1.084       .  S
C1002      C1007   1.477       .  S
C1002      C1003   1.412       .  A
C1003      C1004   1.402       .  A
C1003      S1008   1.805       .  S
C1004      C1005   1.405       .  A
C1004      H1009   1.084       .  S
C1005      C1006   1.416       .  A
C1006      S1010   1.801       .  S
C1007      C1012   1.405       .  A
C1007      C1016   1.402       .  A
S1008      H1024   1.404       .  S
S1010      H1021   1.407       .  S
C1012      C1013   1.397       .  A
C1012      S1017   1.809       .  S
C1013      C1014   1.411       .  A
C1013      H1018   1.082       .  S
C1014      C1015   1.417       .  A
C1015      C1016   1.404       .  A
C1015      S1019   1.800       .  S
C1016      H1020   1.083       .  S
S1017      H1022   1.407       .  S
S1019      H1023   1.408       .  S
C1025      C1026   1.401       .  A
C1025      C1030   1.400       .  A
C1025      H1035   1.083       .  S
C1026      C1031   1.475       .  S
C1026      C1027   1.412       .  A
C1027      C1028   1.392       .  A
C1027      S1032   1.806   1_554  S
C1028      C1029   1.404       .  A
C1028      H1033   1.078       .  S
C1029      C1030   1.420       .  A
C1030      S1034   1.800       .  S
C1031      C1036   1.404   1_554  A
C1031      C1040   1.400       .  A
S1032      H1048   1.406       .  S
S1034      H1045   1.408       .  S
C1036      C1037   1.400       .  A
C1036      S1041   1.805       .  S
C1037      C1038   1.409       .  A
C1037      H1042   1.082       .  S
C1038      C1039   1.421   1_556  A
C1039      C1040   1.398       .  A
C1039      S1043   1.812       .  S
C1040      H1044   1.083       .  S
S1041      H1046   1.407       .  S
S1043      H1047   1.407       .  S
C1049      C1050   1.401   1_545  A
C1049      C1054   1.399       .  A
C1049      H1059   1.084       .  S
C1050      C1055   1.470       .  S
C1050      C1051   1.406       .  A
C1051      C1052   1.391       .  A
C1051      S1056   1.805       .  S
C1052      C1053   1.409       .  A
C1052      H1057   1.084       .  S
C1053      C1054   1.415   1_565  A
C1054      S1058   1.799       .  S
C1055      C1060   1.406   1_556  A
C1055      C1064   1.398   1_565  A
S1056      H1072   1.406       .  S
S1058      H1069   1.407   1_545  S
C1060      C1061   1.403       .  A
C1060      S1065   1.805       .  S
C1061      C1062   1.407       .  A
C1061      H1066   1.083       .  S
C1062      C1063   1.414   1_565  A
C1063      C1064   1.391   1_554  A
C1063      S1067   1.799       .  S
C1064      H1068   1.085       .  S
S1065      H1070   1.407       .  S
S1067      H1071   1.403       .  S
C1073      C1074   1.402   1_545  A
C1073      C1078   1.401       .  A
C1073      H1083   1.084       .  S
C1074      C1079   1.479       .  S
C1074      C1075   1.410       .  A
C1075      C1076   1.398       .  A
C1075      S1080   1.805       .  S
C1076      C1077   1.407   1_565  A
C1076      H1081   1.084       .  S
C1077      C1078   1.416       .  A
C1078      S1082   1.804       .  S
C1079      C1084   1.410   1_565  A
C1079      C1088   1.401       .  A
S1080      H1096   1.405       .  S
S1082      H1093   1.408       .  S
C1084      C1085   1.403       .  A
C1084      S1089   1.806       .  S
C1085      C1086   1.403   1_545  A
C1085      H1090   1.082       .  S
C1086      C1087   1.415       .  A
C1087      C1088   1.398       .  A
C1087      S1091   1.804       .  S
C1088      H1092   1.084       .  S
S1089      H1094   1.406       .  S
S1091      H1095   1.407       .  S
C1097      C1098   1.401       .  A
C1097      C1102   1.394       .  A
C1097      H1107   1.084       .  S
C1098      C1103   1.484       .  S
C1098      C1099   1.415       .  A
C1099      C1100   1.404       .  A
C1099      S1104   1.804       .  S
C1100      C1101   1.405       .  A
C1100      H1105   1.084       .  S
C1101      C1102   1.412       .  A
C1102      S1106   1.803       .  S
C1103      C1108   1.410       .  A
C1103      C1112   1.408       .  A
S1104      H1120   1.406       .  S
S1106      H1117   1.408       .  S
C1108      C1109   1.397       .  A
C1108      S1113   1.810       .  S
C1109      C1110   1.405       .  A
C1109      H1114   1.081       .  S
C1110      C1111   1.412       .  A
C1111      C1112   1.405       .  A
C1111      S1115   1.802       .  S
C1112      H1116   1.084       .  S
S1113      H1118   1.407       .  S
S1115      H1119   1.406       .  S
C1121      C1122   1.402       .  A
C1121      C1126   1.401       .  A
C1121      H1131   1.083       .  S
C1122      C1127   1.474       .  S
C1122      C1123   1.411       .  A
C1123      C1124   1.399       .  A
C1123      S1128   1.806       .  S
C1124      C1125   1.405       .  A
C1124      H1129   1.084       .  S
C1125      C1126   1.413       .  A
C1126      S1130   1.808       .  S
C1127      C1132   1.406       .  A
C1127      C1136   1.398       .  A
S1128      H1144   1.403       .  S
S1130      H1141   1.407       .  S
C1132      C1133   1.403       .  A
C1132      S1137   1.806       .  S
C1133      C1134   1.408       .  A
C1133      H1138   1.082       .  S
C1134      C1135   1.416       .  A
C1135      C1136   1.396       .  A
C1135      S1139   1.799       .  S
C1136      H1140   1.084       .  S
S1137      H1142   1.407       .  S
S1139      H1143   1.407       .  S
C1145      C1146   1.406       .  A
C1145      C1150   1.403       .  A
C1145      H1155   1.084       .  S
C1146      C1151   1.483       .  S
C1146      C1147   1.414       .  A
C1147      C1148   1.397       .  A
C1147      S1152   1.806       .  S
C1148      C1149   1.405       .  A
C1148      H1153   1.085       .  S
C1149      C1150   1.412       .  A
C1150      S1154   1.802       .  S
C1151      C1156   1.412       .  A
C1151      C1160   1.400       .  A
S1152      H1168   1.405       .  S
S1154      H1165   1.407       .  S
C1156      C1157   1.409       .  A
C1156      S1161   1.805       .  S
C1157      C1158   1.406       .  A
C1157      H1162   1.083       .  S
C1158      C1159   1.415       .  A
C1159      C1160   1.393       .  A
C1159      S1163   1.805       .  S
C1160      H1164   1.084       .  S
S1161      H1166   1.407       .  S
S1163      H1167   1.404       .  S
C1169      C1170   1.403       .  A
C1169      C1174   1.400       .  A
C1169      H1179   1.084       .  S
C1170      C1175   1.477       .  S
C1170      C1171   1.410       .  A
C1171      C1172   1.398       .  A
C1171      S1176   1.805       .  S
C1172      C1173   1.406       .  A
C1172      H1177   1.084       .  S
C1173      C1174   1.414       .  A
C1174      S1178   1.800       .  S
C1175      C1180   1.407       .  A
C1175      C1184   1.400       .  A
S1176      H1192   1.404       .  S
S1178      H1189   1.406       .  S
C1180      C1181   1.401       .  A
C1180      S1185   1.806       .  S
C1181      C1182   1.406       .  A
C1181      H1186   1.083       .  S
C1182      C1183   1.415       .  A
C1183      C1184   1.402       .  A
C1183      S1187   1.809       .  S
C1184      H1188   1.083       .  S
S1185      H1190   1.407       .  S
S1187      H1191   1.407       .  S
C1193      C1194   1.403       .  A
C1193      C1198   1.395       .  A
C1193      H1203   1.084       .  S
C1194      C1199   1.481       .  S
C1194      C1195   1.414       .  A
C1195      C1196   1.403       .  A
C1195      S1200   1.803       .  S
C1196      C1197   1.403       .  A
C1196      H1201   1.084       .  S
C1197      C1198   1.411       .  A
C1198      S1202   1.805       .  S
C1199      C1204   1.411       .  A
C1199      C1208   1.405       .  A
S1200      H1216   1.406       .  S
S1202      H1213   1.407       .  S
C1204      C1205   1.400       .  A
C1204      S1209   1.807       .  S
C1205      C1206   1.401       .  A
C1205      H1210   1.084       .  S
C1206      C1207   1.411       .  A
C1207      C1208   1.401       .  A
C1207      S1211   1.803       .  S
C1208      H1212   1.084       .  S
S1209      H1214   1.407       .  S
S1211      H1215   1.404       .  S
C1217      C1218   1.401       .  A
C1217      C1222   1.400   1_554  A
C1217      H1227   1.084   1_655  S
C1218      C1223   1.475       .  S
C1218      C1219   1.409       .  A
C1219      C1220   1.394       .  A
C1219      S1224   1.806       .  S
C1220      C1221   1.408   1_554  A
C1220      H1225   1.083   1_554  S
C1221      C1222   1.421       .  A
C1222      S1226   1.801   1_655  S
C1223      C1228   1.407       .  A
C1223      C1232   1.395       .  A
S1224      H1240   1.404       .  S
S1226      H1237   1.408       .  S
C1228      C1229   1.402       .  A
C1228      S1233   1.806       .  S
C1229      C1230   1.409       .  A
C1229      H1234   1.082       .  S
C1230      C1231   1.424       .  A
C1231      C1232   1.394       .  A
C1231      S1235   1.803   1_655  S
C1232      H1236   1.084   1_655  S
S1233      H1238   1.407       .  S
S1235      H1239   1.405       .  S
C1241      C1242   1.398       .  A
C1241      C1246   1.391       .  A
C1241      H1251   1.084   1_655  S
C1242      C1247   1.470       .  S
C1242      C1243   1.414       .  A
C1243      C1244   1.399       .  A
C1243      S1248   1.805       .  S
C1244      C1245   1.401       .  A
C1244      H1249   1.084       .  S
C1245      C1246   1.414       .  A
C1246      S1250   1.805   1_655  S
C1247      C1252   1.404       .  A
C1247      C1256   1.400       .  A
S1248      H1264   1.405       .  S
S1250      H1261   1.407       .  S
C1252      C1253   1.397       .  A
C1252      S1257   1.807   1_655  S
C1253      C1254   1.410       .  A
C1253      H1258   1.082       .  S
C1254      C1255   1.417       .  A
C1255      C1256   1.395       .  A
C1255      S1259   1.802       .  S
C1256      H1260   1.084       .  S
S1257      H1262   1.407       .  S
S1259      H1263   1.403       .  S
C1265      C1266   1.402       .  A
C1265      C1270   1.399       .  A
C1265      H1275   1.084       .  S
C1266      C1271   1.483       .  S
C1266      C1267   1.415       .  A
C1267      C1268   1.403       .  A
C1267      S1272   1.804       .  S
C1268      C1269   1.403       .  A
C1268      H1273   1.084       .  S
C1269      C1270   1.412       .  A
C1270      S1274   1.803       .  S
C1271      C1276   1.410       .  A
C1271      C1280   1.406       .  A
S1272      H1288   1.406       .  S
S1274      H1285   1.407       .  S
C1276      C1277   1.397       .  A
C1276      S1281   1.809       .  S
C1277      C1278   1.402       .  A
C1277      H1282   1.083       .  S
C1278      C1279   1.413       .  A
C1279      C1280   1.406       .  A
C1279      S1283   1.800       .  S
C1280      H1284   1.083       .  S
S1281      H1286   1.407       .  S
S1283      H1287   1.405       .  S
C1289      C1290   1.400       .  A
C1289      C1294   1.399       .  A
C1289      H1299   1.083       .  S
C1290      C1295   1.479       .  S
C1290      C1291   1.413       .  A
C1291      C1292   1.401       .  A
C1291      S1296   1.806       .  S
C1292      C1293   1.407       .  A
C1292      H1297   1.083       .  S
C1293      C1294   1.417       .  A
C1294      S1298   1.802       .  S
C1295      C1300   1.407       .  A
C1295      C1304   1.403       .  A
S1296      H1312   1.404       .  S
S1298      H1309   1.407       .  S
C1300      C1301   1.402       .  A
C1300      S1305   1.806       .  S
C1301      C1302   1.408       .  A
C1301      H1306   1.083       .  S
C1302      C1303   1.413       .  A
C1303      C1304   1.400       .  A
C1303      S1307   1.800       .  S
C1304      H1308   1.084       .  S
S1305      H1310   1.407       .  S
S1307      H1311   1.406       .  S
C1313      C1314   1.402       .  A
C1313      C1318   1.404       .  A
C1313      H1323   1.083       .  S
C1314      C1319   1.482       .  S
C1314      C1315   1.413       .  A
C1315      C1316   1.402       .  A
C1315      S1320   1.805       .  S
C1316      C1317   1.404       .  A
C1316      H1321   1.084       .  S
C1317      C1318   1.414       .  A
C1318      S1322   1.809       .  S
C1319      C1324   1.407       .  A
C1319      C1328   1.403       .  A
S1320      H1336   1.403       .  S
S1322      H1333   1.406       .  S
C1324      C1325   1.404       .  A
C1324      S1329   1.806       .  S
C1325      C1326   1.408       .  A
C1325      H1330   1.083       .  S
C1326      C1327   1.415       .  A
C1327      C1328   1.402       .  A
C1327      S1331   1.800       .  S
C1328      H1332   1.084       .  S
S1329      H1334   1.407       .  S
S1331      H1335   1.407       .  S
C1337      C1338   1.403   1_556  A
C1337      C1342   1.400       .  A
C1337      H1347   1.084       .  S
C1338      C1343   1.474       .  S
C1338      C1339   1.409       .  A
C1339      C1340   1.394   1_554  A
C1339      S1344   1.803       .  S
C1340      C1341   1.402       .  A
C1340      H1345   1.084       .  S
C1341      C1342   1.413       .  A
C1342      S1346   1.800       .  S
C1343      C1348   1.409       .  A
C1343      C1352   1.399       .  A
S1344      H1360   1.407       .  S
S1346      H1357   1.406       .  S
C1348      C1349   1.408       .  A
C1348      S1353   1.803       .  S
C1349      C1350   1.404       .  A
C1349      H1354   1.081       .  S
C1350      C1351   1.409       .  A
C1351      C1352   1.388       .  A
C1351      S1355   1.802       .  S
C1352      H1356   1.084       .  S
S1353      H1358   1.407       .  S
S1355      H1359   1.406       .  S
C1361      C1362   1.401       .  A
C1361      C1366   1.394       .  A
C1361      H1371   1.084       .  S
C1362      C1367   1.478       .  S
C1362      C1363   1.413       .  A
C1363      C1364   1.403       .  A
C1363      S1368   1.802       .  S
C1364      C1365   1.403       .  A
C1364      H1369   1.084       .  S
C1365      C1366   1.412       .  A
C1366      S1370   1.804       .  S
C1367      C1372   1.408       .  A
C1367      C1376   1.403       .  A
S1368      H1384   1.405       .  S
S1370      H1381   1.406       .  S
C1372      C1373   1.400       .  A
C1372      S1377   1.808       .  S
C1373      C1374   1.405       .  A
C1373      H1378   1.081       .  S
C1374      C1375   1.413       .  A
C1375      C1376   1.401       .  A
C1375      S1379   1.798       .  S
C1376      H1380   1.084       .  S
S1377      H1382   1.407       .  S
S1379      H1383   1.407       .  S
C1385      C1386   1.399       .  A
C1385      C1390   1.400       .  A
C1385      H1395   1.083       .  S
C1386      C1391   1.472       .  S
C1386      C1387   1.408       .  A
C1387      C1388   1.397       .  A
C1387      S1392   1.805       .  S
C1388      C1389   1.406       .  A
C1388      H1393   1.084       .  S
C1389      C1390   1.418       .  A
C1390      S1394   1.809       .  S
C1391      C1396   1.406       .  A
C1391      C1400   1.402       .  A
S1392      H1408   1.405       .  S
S1394      H1405   1.406       .  S
C1396      C1397   1.398       .  A
C1396      S1401   1.807       .  S
C1397      C1398   1.403       .  A
C1397      H1402   1.083       .  S
C1398      C1399   1.411       .  A
C1399      C1400   1.399       .  A
C1399      S1403   1.802       .  S
C1400      H1404   1.084       .  S
S1401      H1406   1.407       .  S
S1403      H1407   1.406       .  S
C1409      C1410   1.402       .  A
C1409      C1414   1.400       .  A
C1409      H1419   1.083       .  S
C1410      C1415   1.473       .  S
C1410      C1411   1.410       .  A
C1411      C1412   1.395       .  A
C1411      S1416   1.803       .  S
C1412      C1413   1.401       .  A
C1412      H1417   1.084       .  S
C1413      C1414   1.411       .  A
C1414      S1418   1.808       .  S
C1415      C1420   1.411       .  A
C1415      C1424   1.404       .  A
S1416      H1432   1.407       .  S
S1418      H1429   1.407       .  S
C1420      C1421   1.391       .  A
C1420      S1425   1.812       .  S
C1421      C1422   1.401       .  A
C1421      H1426   1.083       .  S
C1422      C1423   1.413       .  A
C1423      C1424   1.403       .  A
C1423      S1427   1.804       .  S
C1424      H1428   1.083       .  S
S1425      H1430   1.406       .  S
S1427      H1431   1.406       .  S
C1433      C1434   1.405       .  A
C1433      C1438   1.405       .  A
C1433      H1443   1.084       .  S
C1434      C1439   1.483       .  S
C1434      C1435   1.410       .  A
C1435      C1436   1.395       .  A
C1435      S1440   1.805       .  S
C1436      C1437   1.406       .  A
C1436      H1441   1.084       .  S
C1437      C1438   1.415       .  A
C1438      S1442   1.802       .  S
C1439      C1444   1.409       .  A
C1439      C1448   1.402       .  A
S1440      H1456   1.406       .  S
S1442      H1453   1.407       .  S
C1444      C1445   1.405       .  A
C1444      S1449   1.806       .  S
C1445      C1446   1.408       .  A
C1445      H1450   1.083       .  S
C1446      C1447   1.416       .  A
C1447      C1448   1.399       .  A
C1447      S1451   1.804       .  S
C1448      H1452   1.084       .  S
S1449      H1454   1.407       .  S
S1451      H1455   1.408       .  S
C1457      C1458   1.399       .  A
C1457      C1462   1.397       .  A
C1457      H1467   1.084       .  S
C1458      C1463   1.470       .  S
C1458      C1459   1.407       .  A
C1459      C1460   1.395       .  A
C1459      S1464   1.804       .  S
C1460      C1461   1.406       .  A
C1460      H1465   1.083       .  S
C1461      C1462   1.417       .  A
C1462      S1466   1.799       .  S
C1463      C1468   1.406   1_556  A
C1463      C1472   1.399       .  A
S1464      H1480   1.405       .  S
S1466      H1477   1.406       .  S
C1468      C1469   1.401       .  A
C1468      S1473   1.806       .  S
C1469      C1470   1.406       .  A
C1469      H1474   1.083       .  S
C1470      C1471   1.415       .  A
C1471      C1472   1.395   1_554  A
C1471      S1475   1.801       .  S
C1472      H1476   1.084       .  S
S1473      H1478   1.407       .  S
S1475      H1479   1.406       .  S
C1481      C1482   1.400       .  A
C1481      C1486   1.398       .  A
C1481      H1491   1.084       .  S
C1482      C1487   1.477       .  S
C1482      C1483   1.413       .  A
C1483      C1484   1.400       .  A
C1483      S1488   1.804       .  S
C1484      C1485   1.402       .  A
C1484      H1489   1.084       .  S
C1485      C1486   1.416       .  A
C1486      S1490   1.804       .  S
C1487      C1492   1.408       .  A
C1487      C1496   1.399       .  A
S1488      H1504   1.404       .  S
S1490      H1501   1.407       .  S
C1492      C1493   1.406       .  A
C1492      S1497   1.805       .  S
C1493      C1494   1.406       .  A
C1493      H1498   1.083       .  S
C1494      C1495   1.415       .  A
C1495      C1496   1.396       .  A
C1495      S1499   1.802       .  S
C1496      H1500   1.084       .  S
S1497      H1502   1.407       .  S
S1499      H1503   1.406       .  S
