geometry optimzed in LAMMPS
_audit_creation_date              2020-12-01 
_audit_creation_method            'lammps2cif' 
_symmetry_space_group_name_H-M    'P1' 
_symmetry_Int_Tables_number       1 
_symmetry_cell_setting            triclinic 
loop_ 
_symmetry_equiv_pos_as_xyz 
  x,y,z 
_cell_length_a                    53.5863416 
_cell_length_b                    53.207300122218776 
_cell_length_c                    38.68140316966303 
_cell_angle_alpha                 90.06149427562991 
_cell_angle_beta                  89.98019667177651 
_cell_angle_gamma                 89.91975586031806 
loop_ 
_atom_site_label 
_atom_site_type_symbol 
_atom_site_fract_x 
_atom_site_fract_y 
_atom_site_fract_z 
_atom_site_charge 
Fe1        Fe  0.82752345  0.77834315  0.30692075     1.65800
Fe2        Fe  0.88139953  0.79930181  0.34276053     1.73200
Fe3        Fe  0.84634575  0.83910131  0.29511523     1.54400
O4          O  0.84963626  0.82292679  0.24611551    -0.83100
O5          O  0.87525200  0.83287632  0.36930312    -0.81500
O6          O  0.82980022  0.78604092  0.25550133    -0.85700
O7          O  0.79572658  0.80044913  0.31000103    -0.80500
O8          O  0.88340795  0.84983824  0.29515971    -0.82300
O9          O  0.86200017  0.78005958  0.37957267    -0.85000
C10         C  0.79132199  0.82001041  0.29227047     0.95700
C11         C  0.84000210  0.80219338  0.23581560     1.03200
O12         O  0.85140131  0.80547208  0.31545782    -1.14000
O13         O  0.89074955  0.76531700  0.32022418    -0.76400
O14         O  0.85451874  0.75073737  0.30113992    -0.79900
O15         O  0.80795459  0.83656720  0.28782482    -0.80600
C16         C  0.87752904  0.74778131  0.30775500     0.94600
O17         O  0.82487702  0.76837641  0.35830209    -0.78600
O18         O  0.90505804  0.81598064  0.30810741    -0.83800
C19         C  0.86007966  0.85144521  0.36903979     0.97300
C20         C  0.90396566  0.83843697  0.29804589     1.03200
O21         O  0.84410838  0.85511212  0.34473948    -0.79400
C22         C  0.84183546  0.76764552  0.38134954     1.01500
Fe23       Fe  0.67079285  0.78570390  0.18429531     1.65800
Fe24       Fe  0.61516196  0.80517456  0.15278920     1.73200
Fe25       Fe  0.64945795  0.84478232  0.20083512     1.54400
O26         O  0.64647592  0.82614793  0.24850883    -0.83100
O27         O  0.61971855  0.83964773  0.12758461    -0.81500
O28         O  0.67073666  0.79242635  0.23627399    -0.85700
O29         O  0.70042727  0.80996155  0.17843168    -0.80500
O30         O  0.61198770  0.85517951  0.20028812    -0.82300
O31         O  0.63353846  0.78751459  0.11357854    -0.85000
C32         C  0.70485018  0.82686078  0.20071240     0.95700
C33         C  0.65847148  0.80616166  0.25720838     1.03200
O34         O  0.64552789  0.81176662  0.17849779    -1.14000
O35         O  0.60798961  0.77063124  0.17489511    -0.76400
O36         O  0.64526554  0.75726373  0.19213790    -0.79900
O37         O  0.68803403  0.84255538  0.20880493    -0.80600
C38         C  0.62211452  0.75377911  0.18729078     0.94600
O39         O  0.67139231  0.77633498  0.13261746    -0.78600
O40         O  0.59262398  0.81978579  0.19016556    -0.83800
C41         C  0.63465271  0.85844432  0.12779980     0.97300
C42         C  0.59206938  0.84268600  0.19780134     1.03200
O43         O  0.65107375  0.86198865  0.15172322    -0.79400
C44         C  0.65376999  0.77533702  0.11057395     1.01500
Fe45       Fe  0.31625298  0.77952702  0.43137350     1.65800
Fe46       Fe  0.36372020  0.79539313  0.37669966     1.73200
Fe47       Fe  0.35174785  0.83131488  0.44672666     1.54400
O48         O  0.31468830  0.83635519  0.46142359    -0.83100
O49         O  0.39806847  0.80087200  0.39879679    -0.81500
O50         O  0.29120161  0.80921355  0.43196228    -0.85700
O51         O  0.32198233  0.78545439  0.48290225    -0.80500
O52         O  0.34784849  0.85597976  0.40478611    -0.82300
O53         O  0.36761630  0.75789629  0.39049015    -0.85000
C54         C  0.34026321  0.79293966  0.00144692     0.95700
C55         C  0.29358746  0.82663321  0.45441203     1.03200
O56         O  0.34421642  0.80201472  0.41820744    -1.14000
O57         O  0.33119826  0.78995072  0.35144909    -0.76400
O58         O  0.30595437  0.76759562  0.38225205    -0.79900
O59         O  0.35666550  0.80796714  0.98991360    -0.80600
C60         C  0.31992119  0.76961498  0.35622074     0.94600
O61         O  0.34040735  0.74899189  0.43286902    -0.78600
O62         O  0.36159409  0.83222173  0.36073296    -0.83800
C63         C  0.40508454  0.81593511  0.42209951     0.97300
C64         C  0.35420494  0.85309674  0.37314733     1.03200
O65         O  0.38991575  0.82938440  0.43924534    -0.79400
C66         C  0.35878585  0.74315544  0.41341083     1.01500
Fe67       Fe  0.18323344  0.78732312  0.06563177     1.65800
Fe68       Fe  0.13591790  0.80373915  0.11948975     1.73200
Fe69       Fe  0.15370835  0.84285478  0.05599081     1.54400
O70         O  0.19142468  0.84416825  0.04249482    -0.83100
O71         O  0.10307358  0.81308894  0.09482149    -0.81500
O72         O  0.21098358  0.81398556  0.07172798    -0.85700
O73         O  0.18064081  0.79833524  0.01519353    -0.80500
O74         O  0.15939048  0.86420310  0.10082301    -0.82300
O75         O  0.13069089  0.76698959  0.10243431    -0.85000
C76         C  0.16157886  0.80592019  0.49852568     0.95700
C77         C  0.21123959  0.83209936  0.05011775     1.03200
O78         O  0.15747343  0.81137361  0.08077634    -1.14000
O79         O  0.16670842  0.79426983  0.14697555    -0.76400
O80         O  0.18931378  0.77036382  0.11325108    -0.79900
O81         O  0.14630447  0.82184109  0.51123853    -0.80600
C82         C  0.17721129  0.77355480  0.14092799     0.94600
O83         O  0.15606766  0.76037883  0.05714775    -0.78600
O84         O  0.13934239  0.83982268  0.13923830    -0.83800
C85         C  0.09860110  0.83313822  0.07836090     0.97300
C86         C  0.14946798  0.86056758  0.13054636     1.03200
O87         O  0.11580259  0.84616604  0.06477100    -0.79400
C88         C  0.13818486  0.75376921  0.07691487     1.01500
Fe89       Fe  0.32748903  0.71743098  0.19148610     1.65800
Fe90       Fe  0.38143714  0.69661764  0.15604798     1.73200
Fe91       Fe  0.34724252  0.65766497  0.20452229     1.54400
O92         O  0.35127286  0.67509614  0.25254550    -0.83100
O93         O  0.37783775  0.66124804  0.13297861    -0.81500
O94         O  0.32580536  0.70805072  0.24266469    -0.85700
O95         O  0.29736204  0.69437310  0.18215175    -0.80500
O96         O  0.38480116  0.64776697  0.20387159    -0.82300
O97         O  0.36164710  0.71150632  0.11631888    -0.85000
C98         C  0.29219096  0.67716169  0.20369836     0.95700
C99         C  0.33918583  0.69458812  0.26247103     1.03200
O100        O  0.35165344  0.69076343  0.18320489    -1.14000
O101        O  0.38838974  0.73244580  0.17474586    -0.76400
O102        O  0.35422968  0.74394467  0.20335377    -0.79900
O103        O  0.30864614  0.66104990  0.21195227    -0.80600
C104        C  0.37620273  0.74824627  0.19263668     0.94600
O105        O  0.32841601  0.72983130  0.14095631    -0.78600
O106        O  0.40400723  0.68356533  0.19439523    -0.83800
C107        C  0.36189693  0.64338385  0.13231070     0.97300
C108        C  0.40454098  0.66076719  0.20288042     1.03200
O109        O  0.34470189  0.64099308  0.15528853    -0.79400
C110        C  0.34371390  0.72705389  0.11603148     1.01500
Fe111      Fe  0.17055649  0.72712371  0.31039102     1.65800
Fe112      Fe  0.11611985  0.70705191  0.34485977     1.73200
Fe113      Fe  0.15138780  0.66649724  0.29919392     1.54400
O114        O  0.14763480  0.68227405  0.25004994    -0.83100
O115        O  0.12300199  0.67425532  0.37334014    -0.81500
O116        O  0.16876014  0.71859914  0.25903070    -0.85700
O117        O  0.20207383  0.70474764  0.31454051    -0.80500
O118        O  0.11446522  0.65491973  0.30101871    -0.82300
O119        O  0.13448193  0.72734716  0.38136759    -0.85000
C120        C  0.20630865  0.68556791  0.29591427     0.95700
C121        C  0.15805646  0.70259637  0.23951262     1.03200
O122        O  0.14640170  0.70036007  0.31873203    -1.14000
O123        O  0.10690495  0.74029806  0.31983836    -0.76400
O124        O  0.14388225  0.75474698  0.30332460    -0.79900
O125        O  0.18957490  0.66926253  0.29081638    -0.80600
C126        C  0.12062917  0.75767758  0.30792653     0.94600
O127        O  0.17240524  0.73768654  0.36186010    -0.78600
O128        O  0.09324379  0.68943988  0.31040045    -0.83800
C129        C  0.13876866  0.65608948  0.37386420     0.97300
C130        C  0.09392748  0.66638070  0.30357707     1.03200
O131        O  0.15431677  0.65176613  0.34920808    -0.79400
C132        C  0.15490708  0.73911125  0.38417129     1.01500
Fe133      Fe  0.96825020  0.42277626  0.44450616     1.65800
Fe134      Fe  0.95062595  0.36682108  0.47825877     1.73200
Fe135      Fe  0.90966996  0.40033391  0.43021350     1.54400
O136        O  0.91023576  0.43894683  0.42285825    -0.83100
O137        O  0.93481061  0.34218734  0.44387154    -0.81500
O138        O  0.94376477  0.45234416  0.44977487    -0.85700
O139        O  0.96108916  0.42142101  0.39285467    -0.80500
O140        O  0.89335975  0.40165245  0.47949908    -0.82300
O141        O  0.98432838  0.35956101  0.45425180    -0.85000
C142        C  0.94658605  0.40977002  0.37236719     0.95700
C143        C  0.92605350  0.45598307  0.42872055     1.03200
O144        O  0.94296270  0.39685209  0.45144759    -1.14000
O145        O  0.96833895  0.38692010  0.01600772    -0.76400
O146        O  0.97788857  0.42502555  0.49592759    -0.79900
O147        O  0.92678343  0.39806152  0.38170589    -0.80600
C148        C  0.97952986  0.40787707  0.01803772     0.94600
O149        O  0.99690852  0.39741034  0.43727829    -0.78600
O150        O  0.91649333  0.37133790  0.00415897    -0.83800
C151        C  0.91251337  0.34241372  0.43368914     0.97300
C152        C  0.89780894  0.38593142  0.50399820     1.03200
O153        O  0.90066249  0.36270520  0.42995947    -0.79400
C154        C  0.00080702  0.37414392  0.44199255     1.01500
Fe155      Fe  0.97004564  0.56609106  0.30919006     1.65800
Fe156      Fe  0.95128255  0.61293704  0.25625477     1.73200
Fe157      Fe  0.91083772  0.58989688  0.31448705     1.54400
O158        O  0.91169962  0.55155558  0.32694177    -0.83100
O159        O  0.93986334  0.64394666  0.28394988    -0.81500
O160        O  0.94626955  0.53597911  0.30354835    -0.85700
O161        O  0.95871610  0.56876521  0.35937826    -0.80500
O162        O  0.89289803  0.58394324  0.26658144    -0.82300
O163        O  0.98694510  0.61998933  0.27318657    -0.85000
C164        C  0.94434147  0.58294035  0.37654986     0.95700
C165        C  0.92741371  0.53371974  0.32337998     1.03200
O166        O  0.94410250  0.58967293  0.29342434    -1.14000
O167        O  0.96289189  0.58387118  0.22579973    -0.76400
O168        O  0.98632072  0.56101463  0.26112574    -0.79900
O169        O  0.92709668  0.59622856  0.36278775    -0.80600
C170        C  0.98145067  0.56975205  0.23144985     0.94600
O171        O  0.99569185  0.59449324  0.31735220    -0.78600
O172        O  0.91672599  0.60897681  0.23405696    -0.83800
C173        C  0.91870318  0.64707029  0.29788261     0.97300
C174        C  0.89709573  0.59611325  0.23859681     1.03200
O175        O  0.90534935  0.62858353  0.30759888    -0.79400
C176        C  0.00096201  0.61287840  0.29769875     1.01500
Fe177      Fe  0.53449004  0.56953950  0.20021382     1.65800
Fe178      Fe  0.55203665  0.61845824  0.25143957     1.73200
Fe179      Fe  0.59070437  0.59753122  0.18902808     1.54400
O180        O  0.59137233  0.55981056  0.17475284    -0.83100
O181        O  0.56276625  0.65011372  0.22452345    -0.81500
O182        O  0.56057572  0.54111619  0.20300269    -0.85700
O183        O  0.54310307  0.57386815  0.14910543    -0.80500
O184        O  0.61094626  0.59083867  0.23414950    -0.82300
O185        O  0.51630883  0.62519579  0.23485618    -0.85000
C186        C  0.55338198  0.59127685  0.13202930     0.95700
C187        C  0.57850138  0.54040547  0.18144172     1.03200
O188        O  0.55899934  0.59511892  0.21401831    -1.14000
O189        O  0.53981594  0.59001337  0.28242896    -0.76400
O190        O  0.52063196  0.56240600  0.24902913    -0.79900
O191        O  0.57062257  0.60523212  0.14419777    -0.80600
C192        C  0.52130893  0.57609250  0.27578290     0.94600
O193        O  0.50646597  0.59601042  0.19541705    -0.78600
O194        O  0.58737970  0.61323725  0.27124220    -0.83800
C195        C  0.58295489  0.65371220  0.20840388     0.97300
C196        C  0.60726257  0.60130011  0.26352404     1.03200
O197        O  0.59591562  0.63561224  0.19697133    -0.79400
C198        C  0.50136074  0.61552047  0.21317132     1.01500
Fe199      Fe  0.54228609  0.43224658  0.06714719     1.65800
Fe200      Fe  0.55771495  0.38461385  0.01435464     1.73200
Fe201      Fe  0.60048605  0.40671749  0.07047719     1.54400
O202        O  0.60081643  0.44553768  0.08189883    -0.83100
O203        O  0.56905382  0.35354685  0.04190511    -0.81500
O204        O  0.56699089  0.46031974  0.05608361    -0.85700
O205        O  0.55576404  0.43100015  0.11643556    -0.80500
O206        O  0.61737551  0.41178266  0.02215091    -0.82300
O207        O  0.52221379  0.37935350  0.03373266    -0.85000
C208        C  0.56897291  0.41565287  0.13335885     0.95700
C209        C  0.58524674  0.46328455  0.07655029     1.03200
O210        O  0.56676099  0.40761127  0.05080577    -1.14000
O211        O  0.54615887  0.41376558  0.48330413    -0.76400
O212        O  0.52401393  0.43664725  0.02083597    -0.79900
O213        O  0.58499970  0.40109375  0.11928522    -0.80600
C214        C  0.52816329  0.42834165  0.49024794     0.94600
O215        O  0.51635808  0.40497090  0.07889613    -0.78600
O216        O  0.59235388  0.38774902  0.49045474    -0.83800
C217        C  0.59037219  0.34960626  0.05501869     0.97300
C218        C  0.61224092  0.39948272  0.99464327     1.03200
O219        O  0.60471122  0.36762847  0.06390154    -0.79400
C220        C  0.50926766  0.38726578  0.05906384     1.01500
Fe221      Fe  0.81427728  0.21656698  0.43565843     1.65800
Fe222      Fe  0.86130951  0.19699996  0.38258925     1.73200
Fe223      Fe  0.84098549  0.15864376  0.44634360     1.54400
O224        O  0.84813394  0.17675287  0.99319057    -0.83100
O225        O  0.85631353  0.16137269  0.36276710    -0.81500
O226        O  0.81900086  0.20847005  0.48679809    -0.85700
O227        O  0.78518447  0.19122471  0.43440241    -0.80500
O228        O  0.87924057  0.15423300  0.43967053    -0.82300
O229        O  0.83178269  0.20872799  0.35371566    -0.85000
C230        C  0.78412226  0.17257541  0.45500091     0.95700
C231        C  0.83523658  0.19469680  0.00588918     1.03200
O232        O  0.83882234  0.19069126  0.42127559    -1.14000
O233        O  0.86907814  0.23296581  0.39868428    -0.76400
O234        O  0.84158838  0.24392286  0.43951098    -0.79900
O235        O  0.80289689  0.15824245  0.45987945    -0.80600
C236        C  0.86085909  0.24821811  0.42119237     0.94600
O237        O  0.80659273  0.23065615  0.38676067    -0.78600
O238        O  0.89304739  0.18623280  0.40837983    -0.83800
C239        C  0.84591424  0.14078239  0.37113576     0.97300
C240        C  0.89692923  0.16700362  0.42675160     1.03200
O241        O  0.83571241  0.13726332  0.40080244    -0.79400
C242        C  0.82046866  0.22899138  0.36039584     1.01500
Fe243      Fe  0.67125970  0.21107903  0.06956625     1.65800
Fe244      Fe  0.61588124  0.19523461  0.10501363     1.73200
Fe245      Fe  0.64692152  0.15251617  0.05813606     1.54400
O246        O  0.64306416  0.16918899  0.00973507    -0.83100
O247        O  0.61939360  0.16108709  0.13156158    -0.81500
O248        O  0.66926842  0.20203646  0.01817946    -0.85700
O249        O  0.69939106  0.18519692  0.07652782    -0.80500
O250        O  0.60899757  0.14415898  0.06186704    -0.82300
O251        O  0.63662740  0.21161567  0.14230987    -0.85000
C252        C  0.70280577  0.16771773  0.05479474     0.95700
C253        C  0.65578397  0.18862570  0.49903526     1.03200
O254        O  0.64500043  0.18654425  0.07809754    -1.14000
O255        O  0.61023605  0.23030823  0.08259600    -0.76400
O256        O  0.64719375  0.24098309  0.06100772    -0.79900
O257        O  0.68524702  0.15266511  0.04778241    -0.80600
C258        C  0.62468410  0.24620737  0.06843924     0.94600
O259        O  0.67376689  0.22234472  0.12053085    -0.78600
O260        O  0.59150680  0.18097200  0.06945820    -0.83800
C261        C  0.63416461  0.14210997  0.13212564     0.97300
C262        C  0.58970607  0.15776861  0.06387045     1.03200
O263        O  0.64984454  0.13729150  0.10781566    -0.79400
C264        C  0.65731530  0.22295022  0.14426906     1.01500
Fe265      Fe  0.03060070  0.08253233  0.44328527     1.65800
Fe266      Fe  0.04869753  0.13780520  0.47850518     1.73200
Fe267      Fe  0.08950471  0.10456759  0.42965288     1.54400
O268        O  0.08856674  0.06614260  0.42061508    -0.83100
O269        O  0.06505346  0.16266653  0.44499909    -0.81500
O270        O  0.05480807  0.05251478  0.44663769    -0.85700
O271        O  0.03770293  0.08511265  0.39158623    -0.80500
O272        O  0.10550874  0.10219068  0.47897175    -0.82300
O273        O  0.01502123  0.14587686  0.45480339    -0.85000
C274        C  0.05274067  0.09637325  0.37135876     0.95700
C275        C  0.07245278  0.04919446  0.42530265     1.03200
O276        O  0.05614133  0.10808649  0.45087178    -1.14000
O277        O  0.02835314  0.11704815  0.01537443    -0.76400
O278        O  0.02110017  0.07938373  0.49488765    -0.79900
O279        O  0.07270054  0.10766711  0.38108567    -0.80600
C280        C  0.01817437  0.09564696  0.01827097     0.94600
O281        O  0.00201201  0.10815260  0.43792162    -0.78600
O282        O  0.08124256  0.13060222  0.00688893    -0.83800
C283        C  0.08744490  0.16243738  0.43514781     0.97300
C284        C  0.10101912  0.11742410  0.50407131     1.03200
O285        O  0.09910704  0.14208655  0.43083944    -0.79400
C286        C  0.99818088  0.13135103  0.44331661     1.01500
Fe287      Fe  0.02678805  0.93935370  0.29935793     1.65800
Fe288      Fe  0.04812408  0.89232455  0.24706175     1.73200
Fe289      Fe  0.08534597  0.91489660  0.31030134     1.54400
O290        O  0.08390545  0.95312655  0.32395485    -0.83100
O291        O  0.05986018  0.86096437  0.27352634    -0.81500
O292        O  0.05059710  0.96980362  0.29846604    -0.85700
O293        O  0.03501557  0.93499501  0.35048577    -0.80500
O294        O  0.10602300  0.92141333  0.26497044    -0.82300
O295        O  0.01240329  0.88353211  0.26240300    -0.85000
C296        C  0.04799704  0.91993441  0.36829022     0.95700
C297        C  0.06891212  0.97145051  0.31934696     1.03200
O298        O  0.05341423  0.91555481  0.28538738    -1.14000
O299        O  0.03576602  0.92144864  0.21764660    -0.76400
O300        O  0.01287766  0.94621785  0.25012875    -0.79900
O301        O  0.06623598  0.90730189  0.35602530    -0.80600
C302        C  0.01517298  0.93205592  0.22399736     0.94600
O303        O  0.00067408  0.91089314  0.30315639    -0.78600
O304        O  0.08344738  0.89835403  0.22785190    -0.83800
C305        C  0.07971140  0.85795847  0.29071219     0.97300
C306        C  0.10320925  0.91019339  0.23589055     1.03200
O307        O  0.09170752  0.87647857  0.30318990    -0.79400
C308        C  0.99685478  0.89150098  0.28461064     1.01500
Fe309      Fe  0.18537238  0.28906548  0.43463591     1.65800
Fe310      Fe  0.13734898  0.30692212  0.38238575     1.73200
Fe311      Fe  0.15742365  0.34607274  0.44472371     1.54400
O312        O  0.15004609  0.32497637  0.98977072    -0.83100
O313        O  0.14115355  0.34256104  0.36195595    -0.81500
O314        O  0.18229483  0.29910326  0.48557269    -0.85700
O315        O  0.21361031  0.31511768  0.43004252    -0.80500
O316        O  0.11916062  0.35026819  0.43734547    -0.82300
O317        O  0.16714516  0.29619983  0.35357555    -0.85000
C318        C  0.21483588  0.33315879  0.45170319     0.95700
C319        C  0.16366595  0.30742220  0.00205623     1.03200
O320        O  0.16003712  0.31407909  0.42019887    -1.14000
O321        O  0.13103139  0.27090574  0.39981310    -0.76400
O322        O  0.15849673  0.26160810  0.44156057    -0.79900
O323        O  0.19573245  0.34677648  0.45828476    -0.80600
C324        C  0.13939763  0.25648747  0.42326624     0.94600
O325        O  0.19154313  0.27323542  0.38616515    -0.78600
O326        O  0.10551254  0.31704999  0.40844108    -0.83800
C327        C  0.15171166  0.36327109  0.36953103     0.97300
C328        C  0.10149878  0.33708554  0.42509350     1.03200
O329        O  0.16250980  0.36712402  0.39878770    -0.79400
C330        C  0.17793190  0.27562073  0.35966644     1.01500
Fe331      Fe  0.32971329  0.29204085  0.06729188     1.65800
Fe332      Fe  0.38383677  0.30945376  0.10494771     1.73200
Fe333      Fe  0.35339013  0.35072257  0.05425735     1.54400
O334        O  0.35724465  0.33341634  0.50629862    -0.83100
O335        O  0.37939190  0.34411344  0.12965173    -0.81500
O336        O  0.33210855  0.29998542  0.01582212    -0.85700
O337        O  0.30062353  0.31729759  0.07197505    -0.80500
O338        O  0.39133553  0.35919130  0.05798954    -0.82300
O339        O  0.36269801  0.29320048  0.14236167    -0.85000
C340        C  0.29745925  0.33489819  0.05028176     0.95700
C341        C  0.34453761  0.31434098  0.49627079     1.03200
O342        O  0.35526340  0.31724863  0.07612679    -1.14000
O343        O  0.39086356  0.27433273  0.08405608    -0.76400
O344        O  0.35487227  0.26300879  0.06017241    -0.79900
O345        O  0.31505768  0.35003588  0.04363952    -0.80600
C346        C  0.37727483  0.25833807  0.06872287     0.94600
O347        O  0.32661599  0.28122766  0.11843781    -0.78600
O348        O  0.40864816  0.32286157  0.06972911    -0.83800
C349        C  0.36496967  0.36329962  0.12832713     0.97300
C350        C  0.41053627  0.34565979  0.06196763     1.03200
O351        O  0.34996463  0.36752445  0.10305186    -0.79400
C352        C  0.34257137  0.28074154  0.14284343     1.01500
Fe353      Fe  0.02015553  0.59584192  0.06049913     1.65800
Fe354      Fe  0.04883343  0.63340342  0.00574984     1.73200
Fe355      Fe  0.08222968  0.60515497  0.06946037     1.54400
O356        O  0.06511089  0.60065188  0.11851396    -0.83100
O357        O  0.07537387  0.61097427  0.48079879    -0.81500
O358        O  0.02839496  0.61495151  0.10414280    -0.85700
O359        O  0.03873740  0.56359122  0.07793907    -0.80500
O360        O  0.08604581  0.64349041  0.07688644    -0.82300
O361        O  0.02094467  0.61262539  0.48367252    -0.85000
C362        C  0.06080229  0.55455319  0.08003323     0.95700
C363        C  0.04210418  0.60372285  0.12530160     1.03200
O364        O  0.05074914  0.61028267  0.04396975    -1.14000
O365        O  0.02228526  0.65636616  0.02949571    -0.76400
O366        O  0.99756069  0.62562300  0.04762692    -0.79900
O367        O  0.07948432  0.56597476  0.06656947    -0.80600
C368        C  0.00132231  0.64846697  0.04036194     0.94600
O369        O  0.01088517  0.57929153  0.01400148    -0.78600
O370        O  0.07675596  0.65685273  0.02390574    -0.83800
C371        C  0.09733061  0.61041825  0.99053147     0.97300
C372        C  0.08686851  0.66009104  0.05326309     1.03200
O373        O  0.10320624  0.60863557  0.02267007    -0.79400
C374        C  0.00788919  0.59306533  0.48918527     1.01500
Fe375      Fe  0.02766339  0.44138156  0.19869921     1.65800
Fe376      Fe  0.04801799  0.39417435  0.25045299     1.73200
Fe377      Fe  0.08505171  0.41541508  0.18662570     1.54400
O378        O  0.06431507  0.40752118  0.14219702    -0.83100
O379        O  0.08382733  0.39862757  0.26900908    -0.81500
O380        O  0.03695574  0.43883655  0.14757440    -0.85700
O381        O  0.05284002  0.47038173  0.20321384    -0.80500
O382        O  0.09020727  0.37693949  0.19388616    -0.82300
O383        O  0.03793674  0.42445378  0.27912190    -0.85000
C384        C  0.06985636  0.47260236  0.18039003     0.95700
C385        C  0.04657743  0.42106987  0.13048892     1.03200
O386        O  0.05358609  0.41681394  0.21207555    -1.14000
O387        O  0.01167611  0.38700271  0.23537495    -0.76400
O388        O  0.00113928  0.41326876  0.19257263    -0.79900
O389        O  0.08414106  0.45407447  0.17300103    -0.80600
C390        C  0.99668840  0.39443411  0.21201484     0.94600
O391        O  0.01264072  0.44703566  0.24749037    -0.78600
O392        O  0.05804734  0.36231220  0.22388774    -0.83800
C393        C  0.10384106  0.41001635  0.26089063     0.97300
C394        C  0.07770391  0.35879285  0.20642889     1.03200
O395        O  0.10666780  0.42128565  0.23174523    -0.79400
C396        C  0.01680000  0.43421201  0.27432787     1.01500
Fe397      Fe  0.96977807  0.92434974  0.05753169     1.65800
Fe398      Fe  0.95153704  0.86989166  0.01950643     1.73200
Fe399      Fe  0.90972135  0.90378165  0.06552578     1.54400
O400        O  0.92454574  0.90018049  0.11551023    -0.83100
O401        O  0.91976058  0.87694601  0.48976956    -0.81500
O402        O  0.95988702  0.92269924  0.10825829    -0.85700
O403        O  0.94672127  0.95503259  0.05131635    -0.80500
O404        O  0.89924517  0.86650419  0.06391933    -0.82300
O405        O  0.97280194  0.88978265  0.48505945    -0.85000
C406        C  0.92810561  0.95875642  0.07092782     0.95700
C407        C  0.94410624  0.91129786  0.12707213     1.03200
O408        O  0.94380278  0.89959822  0.04701918    -1.14000
O409        O  0.98354902  0.86068198  0.04643777    -0.76400
O410        O  0.99670385  0.89748537  0.06679477    -0.79900
O411        O  0.91140512  0.94218947  0.07414975    -0.80600
C412        C  0.99984659  0.87417726  0.06128070     0.94600
O413        O  0.98263590  0.92705818  0.00723832    -0.78600
O414        O  0.93311683  0.84513370  0.05097758    -0.83800
C415        C  0.90085631  0.89161788  0.98973254     0.97300
C416        C  0.91069269  0.84595204  0.06055687     1.03200
O417        O  0.89554953  0.90643968  0.01502098    -0.79400
C418        C  0.98502214  0.91015085  0.48456585     1.01500
Fe419      Fe  0.97056911  0.06385421  0.20078908     1.65800
Fe420      Fe  0.94998304  0.11018818  0.25491464     1.73200
Fe421      Fe  0.91338606  0.09062221  0.18926326     1.54400
O422        O  0.93412354  0.09835154  0.14445029    -0.83100
O423        O  0.91454777  0.10430371  0.27384219    -0.81500
O424        O  0.96215410  0.06762075  0.14963752    -0.85700
O425        O  0.94569440  0.03447060  0.20261194    -0.80500
O426        O  0.90867259  0.12898215  0.19711553    -0.82300
O427        O  0.96111209  0.07951953  0.28182635    -0.85000
C428        C  0.92806471  0.03354479  0.18052275     0.95700
C429        C  0.95166431  0.08467336  0.13225315     1.03200
O430        O  0.94457030  0.08833719  0.21520261    -1.14000
O431        O  0.98569320  0.11864041  0.23887219    -0.76400
O432        O  0.99664893  0.09218341  0.19636762    -0.79900
O433        O  0.91381990  0.05240242  0.17516853    -0.80600
C434        C  0.00060208  0.11134683  0.21534514     0.94600
O435        O  0.98539856  0.05661952  0.24940918    -0.78600
O436        O  0.93904576  0.14285343  0.23107457    -0.83800
C437        C  0.89431555  0.09396738  0.26423957     0.97300
C438        C  0.92030209  0.14675713  0.21200242     1.03200
O439        O  0.89135982  0.08449013  0.23393057    -0.79400
C440        C  0.98225474  0.07016951  0.27585310     1.01500
Fe441      Fe  0.81505579  0.71689178  0.06777617     1.65800
Fe442      Fe  0.86410177  0.70103052  0.11992198     1.73200
Fe443      Fe  0.84885514  0.66377229  0.05235332     1.54400
O444        O  0.81106602  0.65911717  0.04056225    -0.83100
O445        O  0.89740648  0.69424017  0.09533030    -0.81500
O446        O  0.78963698  0.68785182  0.07024115    -0.85700
O447        O  0.81859456  0.71008498  0.01608919    -0.80500
O448        O  0.84702849  0.63990802  0.09603936    -0.82300
O449        O  0.86827383  0.73780287  0.10409455    -0.85000
C450        C  0.83609735  0.70196332  0.49673664     0.95700
C451        C  0.79069183  0.67037388  0.04773607     1.03200
O452        O  0.84286517  0.69386598  0.08017174    -1.14000
O453        O  0.83293394  0.70841501  0.14772653    -0.76400
O454        O  0.80660319  0.72982664  0.11689775    -0.79900
O455        O  0.85233842  0.68634056  0.50743425    -0.80600
C456        C  0.82121777  0.72850248  0.14229819     0.94600
O457        O  0.83980677  0.74674482  0.06338737    -0.78600
O458        O  0.86209180  0.66472223  0.13806254    -0.83800
C459        C  0.90334063  0.67904913  0.07156831     0.97300
C460        C  0.85472514  0.64345700  0.12708544     1.03200
O461        O  0.88735582  0.66546483  0.05619684    -0.79400
C462        C  0.85911374  0.75226361  0.08117343     1.01500
Fe463      Fe  0.68105235  0.72098394  0.43276176     1.65800
Fe464      Fe  0.63271597  0.70392405  0.38080061     1.73200
Fe465      Fe  0.65071924  0.66644173  0.44600518     1.54400
O466        O  0.68775731  0.66504309  0.46097281    -0.83100
O467        O  0.59996771  0.69567360  0.40687485    -0.81500
O468        O  0.70864994  0.69345563  0.43052573    -0.85700
O469        O  0.67685224  0.71252434  0.48401664    -0.80500
O470        O  0.65766355  0.64446954  0.40252640    -0.82300
O471        O  0.62797677  0.74140077  0.39480052    -0.85000
C472        C  0.65886752  0.70530880  0.00049270     0.95700
C473        C  0.70803003  0.67591528  0.45302489     1.03200
O474        O  0.65470943  0.69720192  0.41951487    -1.14000
O475        O  0.66312138  0.71220066  0.35174487    -0.76400
O476        O  0.68808867  0.73513730  0.38352444    -0.79900
O477        O  0.64352439  0.68905553  0.98888226    -0.80600
C478        C  0.67484563  0.73238566  0.35668766     0.94600
O479        O  0.65493556  0.74941770  0.43773252    -0.78600
O480        O  0.63623396  0.66724356  0.36356342    -0.83800
C481        C  0.59578720  0.67546164  0.42308744     0.97300
C482        C  0.64776104  0.64733074  0.37272683     1.03200
O483        O  0.61319044  0.66258713  0.43634451    -0.79400
C484        C  0.63687148  0.75577988  0.41812214     1.01500
Fe485      Fe  0.46065035  0.93340432  0.18910223     1.65800
Fe486      Fe  0.44627980  0.88686852  0.24543695     1.73200
Fe487      Fe  0.40431138  0.90416610  0.18538731     1.54400
O488        O  0.40193429  0.94139674  0.17058097    -0.83100
O489        O  0.43629090  0.85369688  0.22099308    -0.81500
O490        O  0.43414966  0.96176029  0.19350694    -0.85700
O491        O  0.44948305  0.92805158  0.13916768    -0.80500
O492        O  0.38588490  0.91098835  0.23252294    -0.82300
O493        O  0.48189869  0.88145206  0.22766220    -0.85000
C494        C  0.43752067  0.91119733  0.12312496     0.95700
C495        C  0.41453255  0.96131028  0.17489847     1.03200
O496        O  0.43716054  0.90810126  0.20673385    -1.14000
O497        O  0.45692752  0.91756264  0.27380074    -0.76400
O498        O  0.47689853  0.94163407  0.23606249    -0.79900
O499        O  0.42162648  0.89683548  0.13785898    -0.80600
C500        C  0.47386421  0.93319758  0.26630140     0.94600
O501        O  0.48870534  0.90686476  0.18263191    -0.78600
O502        O  0.41184034  0.89025159  0.26779097    -0.83800
C503        C  0.41556083  0.84887616  0.20672409     0.97300
C504        C  0.39128674  0.90129940  0.26188384     1.03200
O505        O  0.40148351  0.86608132  0.19514641    -0.79400
C506        C  0.49533536  0.88919244  0.20288142     1.01500
Fe507      Fe  0.45585413  0.07053521  0.06866866     1.65800
Fe508      Fe  0.44336174  0.11809289  0.01337398     1.73200
Fe509      Fe  0.39990027  0.10056370  0.07190229     1.54400
O510        O  0.39662925  0.06258092  0.08387817    -0.83100
O511        O  0.43328526  0.15104544  0.03833524    -0.81500
O512        O  0.42920540  0.04323398  0.06009965    -0.85700
O513        O  0.44315489  0.07351704  0.11789727    -0.80500
O514        O  0.38171985  0.09653880  0.02383671    -0.82300
O515        O  0.47870711  0.12239745  0.03326885    -0.85000
C516        C  0.43140638  0.08998494  0.13479576     0.95700
C517        C  0.40970655  0.04293608  0.07890258     1.03200
O518        O  0.43305254  0.09655236  0.05121475    -1.14000
O519        O  0.45398690  0.08921005  0.48489312    -0.76400
O520        O  0.47354716  0.06361936  0.02297363    -0.79900
O521        O  0.41637569  0.10553681  0.12061551    -0.80600
C522        C  0.47043610  0.07313481  0.49284383     0.94600
O523        O  0.48384168  0.09666664  0.07847017    -0.78600
O524        O  0.40918187  0.11596564  0.98936467    -0.83800
C525        C  0.41293241  0.15612590  0.05355601     0.97300
C526        C  0.38779059  0.10650072  0.99485904     1.03200
O527        O  0.39856421  0.13909981  0.06496718    -0.79400
C528        C  0.49136952  0.11431995  0.05872513     1.01500
Fe529      Fe  0.31454178  0.23145556  0.32072837     1.65800
Fe530      Fe  0.36087263  0.21161762  0.37394291     1.73200
Fe531      Fe  0.34005599  0.17394924  0.31010676     1.54400
O532        O  0.30141489  0.17460131  0.29924307    -0.83100
O533        O  0.39294391  0.20068087  0.34843783    -0.81500
O534        O  0.28509100  0.20724648  0.32763528    -0.85700
O535        O  0.31488327  0.22017714  0.27029319    -0.80500
O536        O  0.33499153  0.15236994  0.35512499    -0.82300
O537        O  0.36800298  0.24796628  0.35737861    -0.85000
C538        C  0.33281489  0.21137703  0.25315721     0.95700
C539        C  0.28289118  0.18888737  0.30656558     1.03200
O540        O  0.33855508  0.20547090  0.33537483    -1.14000
O541        O  0.33088179  0.22281619  0.40209290    -0.76400
O542        O  0.31062689  0.24885693  0.36843263    -0.79900
O543        O  0.34703963  0.19432912  0.26509296    -0.80600
C544        C  0.32176308  0.24425915  0.39648517     0.94600
O545        O  0.34366312  0.25595581  0.31151710    -0.78600
O546        O  0.35590699  0.17592542  0.39355956    -0.83800
C547        C  0.39650605  0.18231892  0.32814854     0.97300
C548        C  0.34516030  0.15558569  0.38479426     1.03200
O549        O  0.37847397  0.16990608  0.31523690    -0.79400
C550        C  0.36167628  0.26151019  0.33167065     1.01500
Fe551      Fe  0.16763077  0.22832762  0.18988069     1.65800
Fe552      Fe  0.11352028  0.20792519  0.15465051     1.73200
Fe553      Fe  0.14867805  0.16794970  0.20256746     1.54400
O554        O  0.18674230  0.17044390  0.21027161    -0.83100
O555        O  0.08962331  0.18959482  0.18741304    -0.81500
O556        O  0.19864522  0.20559458  0.18548529    -0.85700
O557        O  0.16599056  0.22058375  0.24148548    -0.80500
O558        O  0.15133104  0.15245391  0.15293488    -0.82300
O559        O  0.10375909  0.24078034  0.17996527    -0.85000
C560        C  0.15611174  0.20456336  0.26169976     0.95700
C561        C  0.20295052  0.18723951  0.20544396     1.03200
O562        O  0.14342068  0.20152159  0.18207816    -1.14000
O563        O  0.13215048  0.22910031  0.11865934    -0.76400
O564        O  0.17008693  0.23853165  0.13849746    -0.79900
O565        O  0.14561726  0.18412347  0.25173197    -0.80600
C566        C  0.15279434  0.24058429  0.11611566     0.94600
O567        O  0.14073809  0.25564059  0.19620717    -0.78600
O568        O  0.12128803  0.17534109  0.12649737    -0.83800
C569        C  0.09121777  0.16739170  0.19833356     0.97300
C570        C  0.13664019  0.15686346  0.12738413     1.03200
O571        O  0.11197800  0.15668478  0.20242326    -0.79400
C572        C  0.11746535  0.25832529  0.19147767     1.01500
Fe573      Fe  0.51420973  0.90730405  0.43423722     1.65800
Fe574      Fe  0.54503460  0.86943641  0.48604411     1.73200
Fe575      Fe  0.57722371  0.90560934  0.42894481     1.54400
O576        O  0.56131227  0.91113322  0.37906178    -0.83100
O577        O  0.56669161  0.89182502  0.01657927    -0.81500
O578        O  0.52559421  0.89260621  0.38875909    -0.85700
O579        O  0.52926293  0.94245697  0.42210951    -0.80500
O580        O  0.58610710  0.86849488  0.41739597    -0.82300
O581        O  0.51314720  0.88374516  0.00899716    -0.85000
C582        C  0.55019708  0.95389849  0.42182517     0.95700
C583        C  0.53895467  0.90633071  0.37010218     1.03200
O584        O  0.54569444  0.89526874  0.45107794    -1.14000
O585        O  0.52278332  0.84548014  0.45702994    -0.76400
O586        O  0.49503270  0.87438162  0.44166220    -0.79900
O587        O  0.56972581  0.94396680  0.43527165    -0.80600
C588        C  0.50126198  0.85171098  0.44636266     0.94600
O589        O  0.50206447  0.91927912  0.48211260    -0.78600
O590        O  0.57629637  0.85107242  0.46784772    -0.83800
C591        C  0.58904261  0.89792097  0.00960675     0.97300
C592        C  0.58760220  0.85061189  0.43906368     1.03200
O593        O  0.59639690  0.90216582  0.47775402    -0.79400
C594        C  0.49903635  0.90286866  0.00611501     1.01500
Fe595      Fe  0.51146205  0.08480930  0.31475326     1.65800
Fe596      Fe  0.54126168  0.12738331  0.26867394     1.73200
Fe597      Fe  0.57381714  0.09219997  0.32674313     1.54400
O598        O  0.55609908  0.08584801  0.37459349    -0.83100
O599        O  0.56658721  0.10768431  0.23953115    -0.81500
O600        O  0.51740477  0.09786110  0.36284022    -0.85700
O601        O  0.52858865  0.05093320  0.32721597    -0.80500
O602        O  0.58049053  0.12971626  0.33939620    -0.82300
O603        O  0.51228983  0.11097019  0.24229490    -0.85000
C604        C  0.55031539  0.04132576  0.32955699     0.95700
C605        C  0.53317333  0.08806766  0.38279771     1.03200
O606        O  0.54255158  0.10072899  0.30262575    -1.14000
O607        O  0.51482634  0.14833154  0.29654840    -0.76400
O608        O  0.48970442  0.11602656  0.30668308    -0.79900
O609        O  0.56968053  0.05335913  0.31953247    -0.80600
C610        C  0.49333210  0.13940477  0.30352336     0.94600
O611        O  0.50353967  0.07364550  0.26493984    -0.78600
O612        O  0.57002942  0.14802580  0.28984905    -0.83800
C613        C  0.58863494  0.10172260  0.24852532     0.97300
C614        C  0.58159324  0.14805989  0.31840247     1.03200
O615        O  0.59457657  0.09690299  0.28006090    -0.79400
C616        C  0.49950901  0.09092295  0.24285297     1.01500
Fe617      Fe  0.82906451  0.27579008  0.19163679     1.65800
Fe618      Fe  0.88340547  0.29561222  0.15699847     1.73200
Fe619      Fe  0.84719871  0.33685209  0.20225691     1.54400
O620        O  0.80877019  0.33429919  0.20807075    -0.83100
O621        O  0.90703925  0.31675712  0.18679546    -0.81500
O622        O  0.79783497  0.29791671  0.18583866    -0.85700
O623        O  0.82999985  0.28440578  0.24289857    -0.80500
O624        O  0.84599690  0.35120919  0.15154684    -0.82300
O625        O  0.89378311  0.26477653  0.18627816    -0.85000
C626        C  0.83910475  0.30108965  0.26277671     0.95700
C627        C  0.79304832  0.31680335  0.20462861     1.03200
O628        O  0.85313970  0.30275789  0.18347610    -1.14000
O629        O  0.86593544  0.27143719  0.12337731    -0.76400
O630        O  0.82695794  0.26461997  0.14068999    -0.79900
O631        O  0.84895447  0.32175485  0.25235967    -0.80600
C632        C  0.84506119  0.26052030  0.12021528     0.94600
O633        O  0.85645342  0.24907866  0.19920192    -0.78600
O634        O  0.87454187  0.32606048  0.12553762    -0.83800
C635        C  0.90496779  0.33862782  0.19890956     0.97300
C636        C  0.85981846  0.34506954  0.12560393     1.03200
O637        O  0.88393762  0.34860642  0.20413632    -0.79400
C638        C  0.87998591  0.24692161  0.19665758     1.01500
Fe639      Fe  0.68408877  0.27143468  0.32766564     1.65800
Fe640      Fe  0.63579020  0.29183954  0.37798353     1.73200
Fe641      Fe  0.65681693  0.32799966  0.31224012     1.54400
O642        O  0.69510611  0.32851267  0.30068143    -0.83100
O643        O  0.60417936  0.30103410  0.35045137    -0.81500
O644        O  0.71281163  0.29714570  0.32976029    -0.85700
O645        O  0.68166113  0.27869939  0.27614409    -0.80500
O646        O  0.66137117  0.35084998  0.35577656    -0.82300
O647        O  0.62917012  0.25460359  0.36423708    -0.85000
C648        C  0.66506890  0.28893841  0.25785440     0.95700
C649        C  0.71400709  0.31480256  0.30753921     1.03200
O650        O  0.65886085  0.29714263  0.33959025    -1.14000
O651        O  0.66517260  0.28203875  0.40815319    -0.76400
O652        O  0.69021944  0.25844211  0.37735376    -0.79900
O653        O  0.65105682  0.30658064  0.26850902    -0.80600
C654        C  0.67605202  0.26133295  0.40315543     0.94600
O655        O  0.65651982  0.24423208  0.32282432    -0.78600
O656        O  0.64019810  0.32846230  0.39521951    -0.83800
C657        C  0.60049823  0.31831597  0.32859022     0.97300
C658        C  0.65119779  0.34846909  0.38548766     1.03200
O659        O  0.61827913  0.33123365  0.31610018    -0.79400
C660        C  0.63745025  0.23942061  0.34144918     1.01500
Fe661      Fe  0.47423553  0.57653498  0.44624994     1.65800
Fe662      Fe  0.45019048  0.62967430  0.48136501     1.73200
Fe663      Fe  0.41278376  0.59108427  0.43512966     1.54400
O664        O  0.42819091  0.59494310  0.38560732    -0.83100
O665        O  0.41829690  0.62112995  0.00945195    -0.81500
O666        O  0.46515070  0.57571612  0.39519893    -0.85700
O667        O  0.45422046  0.54392088  0.45367408    -0.80500
O668        O  0.39897173  0.62772456  0.43463136    -0.82300
O669        O  0.47153526  0.61261907  0.01848195    -0.85000
C670        C  0.43687852  0.53766316  0.43309155     0.95700
C671        C  0.44870283  0.58495337  0.37524146     1.03200
O672        O  0.44590070  0.59884750  0.45478102    -1.14000
O673        O  0.48242346  0.64114429  0.45679287    -0.76400
O674        O  0.49843484  0.60562001  0.43615596    -0.79900
O675        O  0.41878599  0.55254373  0.42772924    -0.80600
C676        C  0.49976060  0.62906009  0.44191005     0.94600
O677        O  0.48631878  0.57663571  0.49688289    -0.78600
O678        O  0.43144657  0.65144032  0.44654628    -0.83800
C679        C  0.40108592  0.60415198  0.50995763     0.97300
C680        C  0.40936351  0.64900807  0.43612753     1.03200
O681        O  0.39789276  0.58806434  0.48543798    -0.79400
C682        C  0.48614615  0.59387290  0.01963726     1.01500
Fe683      Fe  0.48895608  0.41246788  0.31373309     1.65800
Fe684      Fe  0.45832696  0.37481322  0.26074948     1.73200
Fe685      Fe  0.42652881  0.40620392  0.32300257     1.54400
O686        O  0.44395193  0.40988313  0.37184030    -0.83100
O687        O  0.43364633  0.39708455  0.23432945    -0.81500
O688        O  0.48097754  0.39492027  0.35857440    -0.85700
O689        O  0.47220700  0.44595724  0.33140171    -0.80500
O690        O  0.42012985  0.36839695  0.33150144    -0.82300
O691        O  0.48773114  0.39269296  0.23741396    -0.85000
C692        C  0.45037527  0.45562440  0.33311962     0.95700
C693        C  0.46668229  0.40577325  0.37951315     1.03200
O694        O  0.45764030  0.39883785  0.29809128    -1.14000
O695        O  0.48374493  0.35116937  0.28581076    -0.76400
O696        O  0.51008351  0.38136438  0.30119022    -0.79900
O697        O  0.43165057  0.44486787  0.31890014    -0.80600
C698        C  0.50530916  0.35847237  0.29525947     0.94600
O699        O  0.49820648  0.42741065  0.26622839    -0.78600
O700        O  0.42913493  0.35346359  0.27922891    -0.83800
C701        C  0.41146029  0.40180205  0.24398752     0.97300
C702        C  0.41854855  0.35149130  0.30840302     1.03200
O703        O  0.40555534  0.40414821  0.27606436    -0.79400
C704        C  0.50131838  0.41204769  0.24124722     1.01500
C705        C  0.46327860  0.50472711  0.40333637    -0.14800
C706        C  0.43951316  0.51487173  0.41021781     0.07300
C707        C  0.41936568  0.50612231  0.38999131    -0.14800
C708        C  0.42284275  0.48770483  0.36408876    -0.14800
C709        C  0.44670565  0.47781009  0.35694075     0.07300
C710        C  0.46682226  0.48669450  0.37714110    -0.14800
H711        H  0.47942297  0.51136317  0.41746593     0.11300
H712        H  0.40084598  0.51377358  0.39391883     0.11300
H713        H  0.40676003  0.48107622  0.34983751     0.11300
H714        H  0.48547498  0.47942482  0.37309963     0.11300
C715        C  0.55379891  0.31811790  0.33776184    -0.14800
C716        C  0.57467636  0.32398791  0.31713228     0.07300
C717        C  0.57086514  0.33674354  0.28585676    -0.14800
C718        C  0.54715124  0.34520924  0.27672640    -0.14800
C719        C  0.52661487  0.34115810  0.29849558     0.07300
C720        C  0.52992076  0.32686046  0.32861901    -0.14800
H721        H  0.55616515  0.30823621  0.36198745     0.11300
H722        H  0.58644541  0.34123896  0.26911540     0.11300
H723        H  0.54526953  0.35671549  0.25395863     0.11300
H724        H  0.51451590  0.32420211  0.34637856     0.11300
C725        C  0.76350693  0.29404965  0.24357561    -0.14800
C726        C  0.77085720  0.31674533  0.22799138     0.07300
C727        C  0.76041395  0.33927613  0.24062877    -0.14800
C728        C  0.74263997  0.33898272  0.26749454    -0.14800
C729        C  0.73581197  0.31627599  0.28359603     0.07300
C730        C  0.74654032  0.29385351  0.27121228    -0.14800
H731        H  0.77169606  0.27641797  0.23532327     0.11300
H732        H  0.76610136  0.35713506  0.22981291     0.11300
H733        H  0.73422100  0.35650911  0.27572406     0.11300
H734        H  0.74112515  0.27593658  0.28214880     0.11300
C735        C  0.59629776  0.18242350  0.35810609    -0.14800
C736        C  0.59727067  0.17019146  0.32601595     0.07300
C737        C  0.61223121  0.18029250  0.29961219    -0.14800
C738        C  0.62583098  0.20233869  0.30497073    -0.14800
C739        C  0.62421145  0.21520104  0.33657718     0.07300
C740        C  0.60940772  0.20494090  0.36320367    -0.14800
H741        H  0.58472484  0.17508232  0.37870832     0.14500
H742        H  0.61321050  0.17118875  0.27459166     0.11300
H743        H  0.63700002  0.20974274  0.28397709     0.11300
H744        H  0.60789539  0.21437796  0.38793185     0.11300
C745        C  0.52946102  0.98578197  0.38362345    -0.14800
C746        C  0.55145272  0.97737394  0.39996657     0.07300
C747        C  0.57408698  0.98886366  0.38993618    -0.14800
C748        C  0.57438534  0.00862349  0.36525680    -0.14800
C749        C  0.55212505  0.01698783  0.34935523     0.07300
C750        C  0.52984077  0.00474526  0.35866941    -0.14800
H751        H  0.51159470  0.97741475  0.38970795     0.11300
H752        H  0.59154800  0.98253078  0.40100466     0.11300
H753        H  0.59189616  0.01779496  0.35939345     0.11300
H754        H  0.51218590  0.01046209  0.34752212     0.11300
C755        C  0.44347489  0.18381800  0.33719914    -0.14800
C756        C  0.42242247  0.17455414  0.31926994     0.07300
C757        C  0.42611047  0.15647372  0.29337202    -0.14800
C758        C  0.44976888  0.14684391  0.28683640    -0.14800
C759        C  0.47063188  0.15508726  0.30560364     0.07300
C760        C  0.46748410  0.17409743  0.33041074    -0.14800
H761        H  0.44125032  0.19773662  0.35739418     0.11300
H762        H  0.41051804  0.14895951  0.27885659     0.11300
H763        H  0.45154392  0.13176331  0.26827136     0.11300
H764        H  0.48317189  0.18026035  0.34588308     0.11300
C765        C  0.24961408  0.21000471  0.27179566    -0.14800
C766        C  0.26056440  0.18753089  0.28361784     0.07300
C767        C  0.25346565  0.16486690  0.26761835    -0.14800
C768        C  0.23550786  0.16467858  0.24105774    -0.14800
C769        C  0.22513065  0.18727085  0.22864408     0.07300
C770        C  0.23242690  0.20990061  0.24445107    -0.14800
H771        H  0.25509496  0.22788351  0.28279661     0.11300
H772        H  0.26193371  0.14730096  0.27554209     0.11300
H773        H  0.22969657  0.14686370  0.23019298     0.11300
H774        H  0.22409969  0.22754065  0.23650972     0.11300
C775        C  0.38832099  0.29652206  0.35336093    -0.14800
C776        C  0.37581565  0.28479619  0.32572905     0.07300
C777        C  0.37712717  0.29542138  0.29263652    -0.14800
C778        C  0.39112269  0.31713774  0.28714749    -0.14800
C779        C  0.40357153  0.32886197  0.31478499     0.07300
C780        C  0.40187362  0.31855300  0.34799633    -0.14800
H781        H  0.38746960  0.28875572  0.37920840     0.11300
H782        H  0.36771050  0.28671286  0.27094411     0.11300
H783        H  0.39206353  0.32491437  0.26129560     0.11300
H784        H  0.41140889  0.32724603  0.36959663     0.11300
C785        C  0.33742674  0.13813652  0.44369118    -0.14800
C786        C  0.34716320  0.13485471  0.41017284     0.07300
C787        C  0.36610457  0.11696847  0.40523678    -0.14800
C788        C  0.37714430  0.10497705  0.43367431    -0.14800
C789        C  0.36914332  0.11022019  0.46760807     0.07300
C790        C  0.34811390  0.12566788  0.47213823    -0.14800
H791        H  0.32334034  0.15236912  0.44836415     0.11300
H792        H  0.37453808  0.11467910  0.37996624     0.11300
H793        H  0.39369933  0.09366000  0.42945236     0.11300
H794        H  0.34237270  0.12955824  0.99643672     0.11300
C795        C  0.48450332  0.05820641  0.43583640    -0.14800
C796        C  0.49017741  0.06814099  0.46815294     0.07300
C797        C  0.51356486  0.07937434  0.47416218    -0.14800
C798        C  0.52985198  0.08373502  0.44665440    -0.14800
C799        C  0.52277536  0.07629202  0.41350699     0.07300
C800        C  0.50106132  0.06180161  0.40872738    -0.14800
H801        H  0.46651173  0.04965988  0.43095480     0.11300
H802        H  0.51895204  0.08543630  0.00004081     0.11300
H803        H  0.54639388  0.09503547  0.45061722     0.11300
H804        H  0.49553556  0.05572887  0.38309254     0.11300
C805        C  0.44553423  0.06871518  0.18791129    -0.14800
C806        C  0.43875976  0.09135211  0.17118829     0.07300
C807        C  0.44900729  0.11387802  0.18273741    -0.14800
C808        C  0.46852971  0.11338463  0.20642957    -0.14800
C809        C  0.47755719  0.09042665  0.21990589     0.07300
C810        C  0.46482096  0.06824659  0.21218796    -0.14800
H811        H  0.43811971  0.05095060  0.17915873     0.11300
H812        H  0.44433775  0.13146156  0.17018202     0.11300
H813        H  0.47726032  0.13108543  0.21308988     0.11300
H814        H  0.47082024  0.05046376  0.22298216     0.11300
C815        C  0.40889960  0.97715753  0.11538790    -0.14800
C816        C  0.40899055  0.98225651  0.15114300     0.07300
C817        C  0.40549651  0.00695370  0.16241061    -0.14800
C818        C  0.40279229  0.02627635  0.13806593    -0.14800
C819        C  0.40546401  0.02146050  0.10234094     0.07300
C820        C  0.40819301  0.99663950  0.09116220    -0.14800
H821        H  0.41067499  0.95802963  0.10623469     0.11300
H822        H  0.40516552  0.01129963  0.18976240     0.11300
H823        H  0.40038758  0.04533921  0.14729299     0.11300
H824        H  0.41025991  0.99240361  0.06392448     0.11300
C825        C  0.51804420  0.93283226  0.28440787    -0.14800
C826        C  0.49288285  0.93802247  0.29260936     0.07300
C827        C  0.48543881  0.93838050  0.32714188    -0.14800
C828        C  0.50164292  0.92986226  0.35246743    -0.14800
C829        C  0.52569660  0.92117090  0.34383457     0.07300
C830        C  0.53451341  0.92434467  0.31009330    -0.14800
H831        H  0.52405840  0.93215726  0.25766575     0.11300
H832        H  0.46620513  0.94225086  0.33398860     0.11300
H833        H  0.49453521  0.92810860  0.37857599     0.11300
H834        H  0.55303076  0.91801155  0.30302540     0.11300
C835        C  0.45279555  0.88467539  0.07525288    -0.14800
C836        C  0.44479274  0.90821956  0.08676080     0.07300
C837        C  0.45163597  0.92984170  0.06787041    -0.14800
C838        C  0.46813964  0.92819141  0.04004927    -0.14800
C839        C  0.47846267  0.90494337  0.03124212     0.07300
C840        C  0.46972156  0.88307866  0.04792403    -0.14800
H841        H  0.44822928  0.86785886  0.08967659     0.11300
H842        H  0.44624448  0.94836508  0.07666131     0.11300
H843        H  0.47429777  0.94521675  0.02734797     0.11300
H844        H  0.47705465  0.86475696  0.04112383     0.11300
C845        C  0.54906987  0.67986466  0.43002083    -0.14800
C846        C  0.57041005  0.66494489  0.42506515     0.07300
C847        C  0.56782773  0.63878344  0.42259133    -0.14800
C848        C  0.54462718  0.62752241  0.42619458    -0.14800
C849        C  0.52330885  0.64206222  0.43298304     0.07300
C850        C  0.52563556  0.66844308  0.43442896    -0.14800
H851        H  0.55066678  0.70011934  0.43181163     0.11300
H852        H  0.58394728  0.62689298  0.41816406     0.11300
H853        H  0.54364846  0.60720121  0.42501589     0.11300
H854        H  0.50951918  0.68012601  0.43967539     0.11300
C855        C  0.62730103  0.79338222  0.45431749    -0.14800
C856        C  0.62583044  0.78104222  0.42234615     0.07300
C857        C  0.61365353  0.79302227  0.39459116    -0.14800
C858        C  0.60244158  0.81660084  0.39915412    -0.14800
C859        C  0.60283795  0.82819913  0.43171574     0.07300
C860        C  0.61570663  0.81659619  0.45902922    -0.14800
H861        H  0.63666343  0.78468125  0.47605946     0.11300
H862        H  0.61257715  0.78403899  0.36949706     0.11300
H863        H  0.59248146  0.82515823  0.37783170     0.11300
H864        H  0.61629954  0.82528922  0.48436732     0.11300
C865        C  0.74478139  0.66739154  0.03525075    -0.14800
C866        C  0.76947307  0.66690526  0.02363792     0.07300
C867        C  0.77396461  0.66771992  0.48764940    -0.14800
C868        C  0.75420895  0.67029413  0.46409099    -0.14800
C869        C  0.72959292  0.67096925  0.47606636     0.07300
C870        C  0.72516166  0.66878007  0.01145193    -0.14800
H871        H  0.74070722  0.66738125  0.06267246     0.11300
H872        H  0.79288041  0.66790175  0.47777057     0.11300
H873        H  0.75815686  0.67209679  0.43675530     0.11300
H874        H  0.70625234  0.66960205  0.02132591     0.11300
C875        C  0.88542805  0.17642134  0.20087479    -0.14800
C876        C  0.91076942  0.17270888  0.20820116     0.07300
C877        C  0.92615867  0.19382898  0.21338380    -0.14800
C878        C  0.91634921  0.21823259  0.21031661    -0.14800
C879        C  0.89087574  0.22178102  0.20309538     0.07300
C880        C  0.87558574  0.20056965  0.19868353    -0.14800
H881        H  0.87303097  0.16057026  0.19722938     0.11300
H882        H  0.94577440  0.19145836  0.21927091     0.11300
H883        H  0.92859920  0.23424025  0.21352050     0.11300
H884        H  0.85597224  0.20259013  0.19250379     0.11300
C885        C  0.04607834  0.16530585  0.21391252    -0.14800
C886        C  0.06826839  0.15303741  0.20463249     0.07300
C887        C  0.06803889  0.12697828  0.19868743    -0.14800
C888        C  0.04585346  0.11345353  0.20135428    -0.14800
C889        C  0.02371186  0.12570078  0.21077736     0.07300
C890        C  0.02401605  0.15166163  0.21743954    -0.14800
H891        H  0.04582528  0.18539853  0.21844259     0.11300
H892        H  0.08489610  0.11718113  0.19103106     0.11300
H893        H  0.04605844  0.09339217  0.19654800     0.11300
H894        H  0.00709677  0.16144588  0.22487157     0.11300
C895        C  0.87161443  0.82047279  0.05950924    -0.14800
C896        C  0.89726057  0.82228731  0.06681287     0.07300
C897        C  0.91018170  0.80097218  0.07828799    -0.14800
C898        C  0.89761403  0.77831283  0.08296490    -0.14800
C899        C  0.87200493  0.77635908  0.07544764     0.07300
C900        C  0.85911959  0.79758445  0.06343692    -0.14800
H901        H  0.86136390  0.83663421  0.05008127     0.11300
H902        H  0.92997060  0.80188832  0.08386389     0.11300
H903        H  0.90804116  0.76217559  0.09210058     0.11300
H904        H  0.83938220  0.79656362  0.05759297     0.11300
C905        C  0.95011878  0.98816669  0.11130195    -0.14800
C906        C  0.92769234  0.98015371  0.09597407     0.07300
C907        C  0.90506627  0.98862042  0.11056832    -0.14800
C908        C  0.90492422  0.00513002  0.13905264    -0.14800
C909        C  0.92737842  0.01266137  0.15476440     0.07300
C910        C  0.94994904  0.00389290  0.14048513    -0.14800
H911        H  0.96786054  0.98141085  0.10159566     0.11300
H912        H  0.88742847  0.98228177  0.10006066     0.11300
H913        H  0.88725961  0.01203787  0.14882170     0.11300
H914        H  0.96763156  0.00994573  0.15119118     0.11300
C915        C  0.11257194  0.32894982  0.19508823    -0.14800
C916        C  0.08716362  0.33284334  0.20196159     0.07300
C917        C  0.07154575  0.31181753  0.20644104    -0.14800
C918        C  0.08120829  0.28737179  0.20352165    -0.14800
C919        C  0.10674621  0.28363131  0.19705689     0.07300
C920        C  0.12226466  0.30469993  0.19298749    -0.14800
H921        H  0.12514068  0.34470940  0.19188396     0.11300
H922        H  0.05187752  0.31428608  0.21191180     0.11300
H923        H  0.06880362  0.27145811  0.20643681     0.11300
H924        H  0.14193846  0.30246126  0.18733698     0.11300
C925        C  0.95049413  0.39298165  0.20202885    -0.14800
C926        C  0.97308577  0.38044437  0.20839001     0.07300
C927        C  0.97284329  0.35434799  0.21383681    -0.14800
C928        C  0.95056557  0.34086241  0.21181422    -0.14800
C929        C  0.92794418  0.35327787  0.20519640     0.07300
C930        C  0.92803738  0.37953626  0.20084857    -0.14800
H931        H  0.95018819  0.41317054  0.19844119     0.11300
H932        H  0.99001880  0.34430285  0.21912688     0.11300
H933        H  0.95104716  0.32065220  0.21514603     0.11300
H934        H  0.91087829  0.38953265  0.19533390     0.11300
C935        C  0.08754068  0.52110700  0.11063937    -0.14800
C936        C  0.06417373  0.53229558  0.10372163     0.07300
C937        C  0.04369232  0.52446828  0.12397977    -0.14800
C938        C  0.04632277  0.50661242  0.15022287    -0.14800
C939        C  0.06937803  0.49500041  0.15681506     0.07300
C940        C  0.08998698  0.50227605  0.13635007    -0.14800
H941        H  0.10388420  0.52688156  0.09624716     0.11300
H942        H  0.02535530  0.53250081  0.12009288     0.11300
H943        H  0.02981704  0.50114094  0.16452768     0.11300
H944        H  0.10794908  0.49338206  0.14019100     0.11300
C945        C  0.96060182  0.66295777  0.01930341    -0.14800
C946        C  0.97958756  0.66502535  0.04405615     0.07300
C947        C  0.97386542  0.67505137  0.07668073    -0.14800
C948        C  0.94915697  0.68124455  0.08512982    -0.14800
C949        C  0.92982845  0.67679090  0.06130898     0.07300
C950        C  0.93594086  0.66862582  0.02785833    -0.14800
H951        H  0.96444520  0.65484993  0.99431375     0.11300
H952        H  0.98808317  0.67602315  0.09652698     0.11300
H953        H  0.94495173  0.68766664  0.11106935     0.11300
H954        H  0.92148510  0.66546907  0.00876989     0.11300
C955        C  0.36002893  0.37448562  0.19054886    -0.14800
C956        C  0.36784042  0.38139452  0.15716452     0.07300
C957        C  0.38585331  0.40037567  0.15388609    -0.14800
C958        C  0.39795434  0.40999585  0.18320762    -0.14800
C959        C  0.39209598  0.40102544  0.21646195     0.07300
C960        C  0.37179693  0.38449980  0.21999093    -0.14800
H961        H  0.34671538  0.35936655  0.19379571     0.11300
H962        H  0.39273845  0.40552605  0.12853084     0.11300
H963        H  0.41372799  0.42243690  0.17960620     0.11300
H964        H  0.36720754  0.37679462  0.24510887     0.11300
C965        C  0.35285215  0.26524997  0.43392411    -0.14800
C966        C  0.32906735  0.26544403  0.41866510     0.07300
C967        C  0.31418833  0.28704851  0.42155448    -0.14800
C968        C  0.32181217  0.30686804  0.44284583    -0.14800
C969        C  0.34459732  0.30548070  0.46077529     0.07300
C970        C  0.36076143  0.28536163  0.45416961    -0.14800
H971        H  0.36518273  0.24926203  0.43081045     0.11300
H972        H  0.29612912  0.28795334  0.40904041     0.11300
H973        H  0.30870275  0.32184752  0.44848617     0.11300
H974        H  0.37810053  0.28357689  0.46839981     0.11300
C975        C  0.31811185  0.24767293  0.17384927    -0.14800
C976        C  0.33954977  0.26265096  0.17133268     0.07300
C977        C  0.36013174  0.25733532  0.19287157    -0.14800
C978        C  0.35909575  0.23789952  0.21686294    -0.14800
C979        C  0.33734649  0.22370708  0.22023378     0.07300
C980        C  0.31694243  0.22851956  0.19839465    -0.14800
H981        H  0.30220730  0.25090936  0.15717309     0.11300
H982        H  0.37720698  0.26813773  0.19119065     0.11300
H983        H  0.37456741  0.23520056  0.23451294     0.11300
H984        H  0.29963336  0.21826779  0.20164101     0.11300
C985        C  0.37035460  0.21254127  0.05950251    -0.14800
C986        C  0.38715288  0.23265774  0.06249090     0.07300
C987        C  0.41294630  0.22749817  0.06221683    -0.14800
C988        C  0.42163623  0.20266545  0.05888883    -0.14800
C989        C  0.40464815  0.18259410  0.05685841     0.07300
C990        C  0.37896910  0.18787653  0.05706967    -0.14800
H991        H  0.35039269  0.21577239  0.06003462     0.11300
H992        H  0.42633505  0.24261449  0.06466872     0.11300
H993        H  0.44154343  0.19910750  0.05861912     0.11300
H994        H  0.36542472  0.17285714  0.05504470     0.11300
C995        C  0.24536604  0.35798064  0.48911197    -0.14800
C996        C  0.23702279  0.33499077  0.47514871     0.07300
C997        C  0.24765700  0.31164195  0.98826583    -0.14800
C998        C  0.26587469  0.31225200  0.01430839    -0.14800
C999        C  0.27483408  0.33516801  0.02749014     0.07300
C1000       C  0.26441330  0.35852033  0.51442128    -0.14800
H1001       H  0.23732406  0.37550543  0.48022573     0.11300
H1002       H  0.24116885  0.29353739  0.97916721     0.11300
H1003       H  0.27365386  0.29463180  0.02332179     0.11300
H1004       H  0.27125010  0.37647720  0.52354815     0.11300
C1005       C  0.14352544  0.39027665  0.28068529    -0.14800
C1006       C  0.12427992  0.40769978  0.28680490     0.07300
C1007       C  0.11947131  0.41476582  0.32130775    -0.14800
C1008       C  0.13177900  0.40292143  0.34903678    -0.14800
C1009       C  0.14887584  0.38335672  0.34296551     0.07300
C1010       C  0.15548485  0.37807706  0.30842420    -0.14800
H1011       H  0.14706516  0.38369824  0.25462762     0.11300
H1012       H  0.10417915  0.42746455  0.32697380     0.11300
H1013       H  0.12556250  0.40682935  0.37514817     0.11300
H1014       H  0.16797092  0.36256148  0.30281877     0.11300
C1015       C  0.13651965  0.28271111  0.04045862    -0.14800
C1016       C  0.15878930  0.29594190  0.03572408     0.07300
C1017       C  0.17905822  0.29122077  0.05784297    -0.14800
C1018       C  0.17736761  0.27297357  0.08365894    -0.14800
C1019       C  0.15549225  0.25876316  0.08742223     0.07300
C1020       C  0.13489394  0.26422642  0.06596853    -0.14800
H1021       H  0.12085418  0.28801626  0.52491433     0.11300
H1022       H  0.19667865  0.30074833  0.05384749     0.11300
H1023       H  0.19334455  0.26968835  0.10020528     0.11300
H1024       H  0.11752546  0.25403649  0.06859237     0.11300
C1025       C  0.18754502  0.23307388  0.33457653    -0.14800
C1026       C  0.17098301  0.25319780  0.33946146     0.07300
C1027       C  0.14646470  0.25116110  0.32686605    -0.14800
C1028       C  0.13932210  0.23054963  0.30700065    -0.14800
C1029       C  0.15693963  0.21231457  0.29776240     0.07300
C1030       C  0.18061883  0.21282444  0.31349407    -0.14800
H1031       H  0.20630655  0.23386649  0.34492360     0.11300
H1032       H  0.13299231  0.26601269  0.33127882     0.11300
H1033       H  0.12116931  0.23085332  0.29464599     0.11300
H1034       H  0.19473055  0.19925977  0.30601897     0.11300
C1035       C  0.99146960  0.90066609  0.18953648    -0.14800
C1036       C  0.99281737  0.92488252  0.20395745     0.07300
C1037       C  0.97194935  0.94075989  0.20145889    -0.14800
C1038       C  0.95154437  0.93372608  0.18096098    -0.14800
C1039       C  0.95163838  0.91061432  0.16322979     0.07300
C1040       C  0.97071462  0.89333436  0.17030479    -0.14800
H1041       H  0.00686307  0.88758740  0.19218220     0.11300
H1042       H  0.97214844  0.95920201  0.21331873     0.11300
H1043       H  0.93731945  0.94763174  0.17530647     0.11300
H1044       H  0.97149564  0.87561689  0.15648186     0.11300
C1045       C  0.03204093  0.93806069  0.42258734    -0.14800
C1046       C  0.03922023  0.91660856  0.40368500     0.07300
C1047       C  0.03019617  0.89306357  0.41338901    -0.14800
C1048       C  0.01253064  0.89122134  0.43968762    -0.14800
C1049       C  0.00382688  0.91288650  0.45699053     0.07300
C1050       C  0.01461448  0.93619123  0.44931045    -0.14800
H1051       H  0.03854116  0.95650436  0.41490527     0.11300
H1052       H  0.03502796  0.87643627  0.39861105     0.11300
H1053       H  0.00523159  0.87280139  0.44588469     0.11300
H1054       H  0.00790176  0.95313834  0.96161201     0.11300
C1055       C  0.13604176  0.13735177  0.03434972    -0.14800
C1056       C  0.11766440  0.11854076  0.03506160     0.07300
C1057       C  0.11013897  0.10889287  0.06720247    -0.14800
C1058       C  0.11924142  0.11930220  0.09806450    -0.14800
C1059       C  0.13577830  0.13974569  0.09730334     0.07300
C1060       C  0.14488707  0.14800309  0.06521522    -0.14800
H1061       H  0.14141794  0.14579251  0.00996697     0.11300
H1062       H  0.09531357  0.09511431  0.06846669     0.11300
H1063       H  0.11127459  0.11320796  0.12240972     0.11300
H1064       H  0.15696950  0.16427023  0.06392839     0.11300
C1065       C  0.08748575  0.20914069  0.42842046    -0.14800
C1066       C  0.10077888  0.18645137  0.43058820     0.07300
C1067       C  0.12704121  0.18708342  0.43148211    -0.14800
C1068       C  0.13971571  0.21001098  0.43060888    -0.14800
C1069       C  0.12633046  0.23256890  0.42818001     0.07300
C1070       C  0.10017411  0.23197422  0.42682022    -0.14800
H1071       H  0.06726991  0.20924319  0.42793593     0.11300
H1072       H  0.13777356  0.16989417  0.43356122     0.11300
H1073       H  0.15993623  0.21010896  0.43094480     0.11300
H1074       H  0.08956672  0.24924054  0.42459563     0.11300
C1075       C  0.09424899  0.01923181  0.38423523    -0.14800
C1076       C  0.07222156  0.02747615  0.40071050     0.07300
C1077       C  0.04929479  0.01841940  0.38813462    -0.14800
C1078       C  0.04837536  0.00176696  0.35994667    -0.14800
C1079       C  0.07037141  0.99309366  0.34393695     0.07300
C1080       C  0.09336301  0.00179303  0.35679853    -0.14800
H1081       H  0.11219441  0.02633917  0.39256223     0.11300
H1082       H  0.03192013  0.02494861  0.39931172     0.11300
H1083       H  0.03036754  0.99491050  0.35145309     0.11300
H1084       H  0.11066003  0.99507162  0.34561859     0.11300
C1085       C  0.98837611  0.06939399  0.05305811    -0.14800
C1086       C  0.99968526  0.09263537  0.04644221     0.07300
C1087       C  0.99102252  0.11407523  0.06441726    -0.14800
C1088       C  0.97255408  0.11208192  0.08975441    -0.14800
C1089       C  0.96252742  0.08860276  0.09787416     0.07300
C1090       C  0.97009168  0.06738470  0.07868375    -0.14800
H1091       H  0.99407572  0.05268935  0.03909094     0.11300
H1092       H  0.99874470  0.13248614  0.05925774     0.11300
H1093       H  0.96757388  0.12852561  0.10481752     0.11300
H1094       H  0.96291544  0.04893433  0.08508272     0.11300
C1095       C  0.04605173  0.07322242  0.31789729    -0.14800
C1096       C  0.04430850  0.09622677  0.33566966     0.07300
C1097       C  0.02390276  0.11198504  0.32919765    -0.14800
C1098       C  0.00363101  0.10313023  0.31031265    -0.14800
C1099       C  0.00411586  0.07899912  0.29554077     0.07300
C1100       C  0.02613083  0.06474851  0.29757790    -0.14800
H1101       H  0.06134809  0.06045739  0.32324838     0.11300
H1102       H  0.02191258  0.12954237  0.34318535     0.11300
H1103       H  0.98722047  0.11493689  0.30818402     0.11300
H1104       H  0.02724269  0.04639595  0.28553610     0.11300
C1105       C  0.56088240  0.12128915  0.07272673    -0.14800
C1106       C  0.56467190  0.14630704  0.06216313     0.07300
C1107       C  0.54398286  0.16100497  0.05299709    -0.14800
C1108       C  0.52005918  0.15075675  0.05339527    -0.14800
C1109       C  0.51619637  0.12572167  0.06364395     0.07300
C1110       C  0.53677232  0.11113025  0.07374440    -0.14800
H1111       H  0.57650657  0.10972296  0.08061102     0.11300
H1112       H  0.54633439  0.18040986  0.04516106     0.11300
H1113       H  0.50451818  0.16235771  0.04526078     0.11300
H1114       H  0.53431659  0.09166076  0.08117934     0.11300
C1115       C  0.63793891  0.21733656  0.45816548    -0.14800
C1116       C  0.65477851  0.19761542  0.46368064     0.07300
C1117       C  0.67731575  0.19718187  0.44511127    -0.14800
C1118       C  0.68426850  0.21780288  0.42495556    -0.14800
C1119       C  0.66890481  0.23915474  0.42359635     0.07300
C1120       C  0.64517385  0.23825563  0.43902236    -0.14800
H1121       H  0.62066622  0.21827756  0.47277296     0.11300
H1122       H  0.69082860  0.18244770  0.44972060     0.11300
H1123       H  0.70231542  0.21767923  0.41223524     0.11300
H1124       H  0.63247100  0.25399539  0.43709755     0.11300
C1125       C  0.68093360  0.25598347  0.17646120    -0.14800
C1126       C  0.66036030  0.23980528  0.17397151     0.07300
C1127       C  0.64018205  0.24280278  0.19700547    -0.14800
C1128       C  0.64046602  0.26157978  0.22178835    -0.14800
C1129       C  0.66117176  0.27722368  0.22471371     0.07300
C1130       C  0.68147891  0.27439101  0.20212421    -0.14800
H1131       H  0.69652383  0.25438101  0.15876144     0.11300
H1132       H  0.62390178  0.23080152  0.19577047     0.11300
H1133       H  0.62529826  0.26270769  0.24029842     0.11300
H1134       H  0.69811012  0.28570893  0.20538617     0.11300
C1135       C  0.60304145  0.09422056  0.18797057    -0.14800
C1136       C  0.60791681  0.10390469  0.22114920     0.07300
C1137       C  0.62646507  0.12238628  0.22466895    -0.14800
C1138       C  0.63757202  0.13313021  0.19527121    -0.14800
C1139       C  0.63104467  0.12491657  0.16191226     0.07300
C1140       C  0.61467240  0.10447000  0.15867685    -0.14800
H1141       H  0.58842110  0.08041996  0.18439582     0.11300
H1142       H  0.63012128  0.13066896  0.24974201     0.11300
H1143       H  0.64951876  0.14938127  0.19844719     0.11300
H1144       H  0.60873539  0.09830124  0.13328474     0.11300
C1145       C  0.94294141  0.17553091  0.43169258    -0.14800
C1146       C  0.92289753  0.15847586  0.43204109     0.07300
C1147       C  0.92789275  0.13274886  0.43565529    -0.14800
C1148       C  0.95239582  0.12412675  0.43826774    -0.14800
C1149       C  0.97254457  0.14105464  0.43800389     0.07300
C1150       C  0.96756633  0.16691457  0.43514696    -0.14800
H1151       H  0.93953579  0.19549894  0.42898927     0.11300
H1152       H  0.91283443  0.11918238  0.43570916     0.11300
H1153       H  0.95551422  0.10412083  0.44108979     0.11300
H1154       H  0.98267621  0.18041168  0.43533316     0.11300
C1155       C  0.86522815  0.10063051  0.35161511    -0.14800
C1156       C  0.84838286  0.12032035  0.34507759     0.07300
C1157       C  0.84197042  0.12535041  0.31043537    -0.14800
C1158       C  0.85418092  0.11303633  0.28301297    -0.14800
C1159       C  0.87351394  0.09584528  0.28961820     0.07300
C1160       C  0.87785336  0.08872082  0.32419403    -0.14800
H1161       H  0.87116384  0.09681262  0.37786368     0.11300
H1162       H  0.82958253  0.14086972  0.30451715     0.11300
H1163       H  0.85090132  0.11952608  0.25686465     0.11300
H1164       H  0.89308419  0.07604672  0.33020126     0.11300
C1165       C  0.81806805  0.21119999  0.06042438    -0.14800
C1166       C  0.83916068  0.20419355  0.04099967     0.07300
C1167       C  0.86246401  0.21417051  0.04967407    -0.14800
C1168       C  0.86427281  0.23251359  0.07542588    -0.14800
C1169       C  0.84280817  0.24105072  0.09306783     0.07300
C1170       C  0.81987360  0.22938423  0.08632811    -0.14800
H1171       H  0.79979142  0.20399145  0.05364920     0.11300
H1172       H  0.87883195  0.20950814  0.03450042     0.11300
H1173       H  0.88243926  0.24052127  0.08079904     0.11300
H1174       H  0.80316518  0.23498002  0.10009631     0.11300
C1175       C  0.80930462  0.27154644  0.33628494    -0.14800
C1176       C  0.82645187  0.25179460  0.34033035     0.07300
C1177       C  0.85069963  0.25462846  0.32708510    -0.14800
C1178       C  0.85702836  0.27564460  0.30753581    -0.14800
C1179       C  0.83881375  0.29345139  0.29894061     0.07300
C1180       C  0.81535462  0.29213053  0.31526140    -0.14800
H1181       H  0.79073549  0.27019134  0.34719797     0.11300
H1182       H  0.86462095  0.24011617  0.33080036     0.11300
H1183       H  0.87503194  0.27591557  0.29473256     0.11300
H1184       H  0.80076636  0.30531703  0.30834654     0.11300
C1185       C  0.75364615  0.19200483  0.49573676    -0.14800
C1186       C  0.76230593  0.17026974  0.47884757     0.07300
C1187       C  0.75289407  0.14676131  0.99009680    -0.14800
C1188       C  0.73409080  0.14564020  0.01565513    -0.14800
C1189       C  0.72548914  0.16764675  0.03221207     0.07300
C1190       C  0.73575695  0.19062730  0.52210685    -0.14800
H1191       H  0.76131147  0.21029247  0.48913467     0.11300
H1192       H  0.75972110  0.12952101  0.97863244     0.11300
H1193       H  0.72618080  0.12754017  0.02241573     0.11300
H1194       H  0.72933249  0.20788629  0.53389100     0.11300
C1195       C  0.65083032  0.38075319  0.47117448    -0.14800
C1196       C  0.63074845  0.39731442  0.46624600     0.07300
C1197       C  0.62285815  0.40245472  0.43228845    -0.14800
C1198       C  0.63269241  0.38892285  0.40429024    -0.14800
C1199       C  0.65024206  0.36977327  0.40996368     0.07300
C1200       C  0.66025592  0.36679750  0.44328747    -0.14800
H1201       H  0.65675981  0.37593298  0.49710643     0.11300
H1202       H  0.60695837  0.41465330  0.42791254     0.11300
H1203       H  0.62424902  0.39114999  0.37903492     0.11300
H1204       H  0.67341528  0.35177292  0.44839598     0.11300
C1205       C  0.51747480  0.43619183  0.42973245    -0.14800
C1206       C  0.50945665  0.43232668  0.46354288     0.07300
C1207       C  0.48476872  0.42444021  0.46994269    -0.14800
C1208       C  0.46935495  0.41728817  0.44241532    -0.14800
C1209       C  0.47878208  0.41819226  0.40875532     0.07300
C1210       C  0.50219110  0.42926884  0.40252119    -0.14800
H1211       H  0.53641250  0.44218271  0.42443957     0.11300
H1212       H  0.47804257  0.42206110  0.99601603     0.11300
H1213       H  0.45125078  0.40908565  0.44756320     0.11300
H1214       H  0.50950574  0.43081127  0.37649348     0.11300
C1215       C  0.55530995  0.43597054  0.18736149    -0.14800
C1216       C  0.56200165  0.41371078  0.16966554     0.07300
C1217       C  0.55156406  0.39096072  0.17983433    -0.14800
C1218       C  0.53191748  0.39091900  0.20319672    -0.14800
C1219       C  0.52322867  0.41344684  0.21833250     0.07300
C1220       C  0.53606383  0.43581607  0.21185569    -0.14800
H1221       H  0.56302108  0.45385570  0.17936869     0.11300
H1222       H  0.55603283  0.37373259  0.16616678     0.11300
H1223       H  0.52271210  0.37318395  0.20809198     0.11300
H1224       H  0.53013945  0.45327592  0.22373178     0.11300
C1225       C  0.58184017  0.30334334  0.06222674    -0.14800
C1226       C  0.59905060  0.32313949  0.05866203     0.07300
C1227       C  0.62456343  0.31723212  0.05642485    -0.14800
C1228       C  0.63269328  0.29218699  0.05797612    -0.14800
C1229       C  0.61555972  0.27237466  0.06246041     0.07300
C1230       C  0.59000863  0.27831296  0.06452709    -0.14800
H1231       H  0.56203936  0.30726045  0.06373339     0.11300
H1232       H  0.63825415  0.33198969  0.05301958     0.11300
H1233       H  0.65252455  0.28841530  0.05659703     0.11300
H1234       H  0.57630360  0.26360748  0.06817519     0.11300
C1235       C  0.46374817  0.39179270  0.07028935    -0.14800
C1236       C  0.48436106  0.37628052  0.06338763     0.07300
C1237       C  0.48050354  0.35088976  0.05525803    -0.14800
C1238       C  0.45641452  0.34111610  0.05402026    -0.14800
C1239       C  0.43568937  0.35668402  0.06011996     0.07300
C1240       C  0.43953467  0.38211462  0.06834792    -0.14800
H1241       H  0.46632779  0.41157828  0.07588095     0.11300
H1242       H  0.49581858  0.33886427  0.54706578     0.11300
H1243       H  0.45353819  0.32168937  0.54617044     0.11300
H1244       H  0.42387830  0.39436029  0.07386687     0.11300
C1245       C  0.62068704  0.59454393  0.32377031    -0.14800
C1246       C  0.62689034  0.60206929  0.29000974     0.07300
C1247       C  0.64640730  0.61924611  0.28529222    -0.14800
C1248       C  0.65658675  0.63176174  0.31381592    -0.14800
C1249       C  0.64774009  0.62678521  0.34731156     0.07300
C1250       C  0.63120538  0.60673541  0.35233846    -0.14800
H1251       H  0.60528350  0.58173316  0.32797288     0.11300
H1252       H  0.65105335  0.62579718  0.25957298     0.11300
H1253       H  0.66898631  0.64749910  0.30936398     0.11300
H1254       H  0.62371205  0.60297872  0.37782933     0.11300
C1255       C  0.49103591  0.60251425  0.30774528    -0.14800
C1256       C  0.49869565  0.57843362  0.29709693     0.07300
C1257       C  0.48330855  0.55778950  0.30404737    -0.14800
C1258       C  0.46230889  0.56081859  0.32517355    -0.14800
C1259       C  0.45634798  0.58455651  0.33913067     0.07300
C1260       C  0.46971713  0.60560655  0.32799289    -0.14800
H1261       H  0.50203540  0.61892338  0.30137539     0.11300
H1262       H  0.48839582  0.53918242  0.29506458     0.11300
H1263       H  0.45261670  0.54419571  0.33416188     0.11300
H1264       H  0.46582006  0.62397499  0.33890155     0.11300
C1265       C  0.52182892  0.57354752  0.05076594    -0.14800
C1266       C  0.50482271  0.59349546  0.04766364     0.07300
C1267       C  0.50788978  0.61488929  0.06879199    -0.14800
C1268       C  0.52674227  0.61577264  0.09356952    -0.14800
C1269       C  0.54268935  0.59522217  0.09792193     0.07300
C1270       C  0.54048474  0.57434443  0.07589355    -0.14800
H1271       H  0.52036913  0.55710061  0.03438309     0.11300
H1272       H  0.49552112  0.63091623  0.06653931     0.11300
H1273       H  0.52749763  0.63156849  0.11124886     0.11300
H1274       H  0.55211208  0.55791013  0.07983327     0.11300
C1275       C  0.56123916  0.49125314  0.11583038    -0.14800
C1276       C  0.58445195  0.48445040  0.10158376     0.07300
C1277       C  0.60621555  0.49475960  0.11605994    -0.14800
C1278       C  0.60462163  0.51222503  0.14333646    -0.14800
C1279       C  0.58134415  0.51856795  0.15791747     0.07300
C1280       C  0.55974256  0.50769153  0.14394536    -0.14800
H1281       H  0.54413292  0.48313990  0.10594858     0.11300
H1282       H  0.62436596  0.48944500  0.10611816     0.11300
H1283       H  0.62152883  0.52090716  0.15292910     0.11300
H1284       H  0.54148802  0.51281009  0.15375545     0.11300
C1285       C  0.85734954  0.61229941  0.21385958    -0.14800
C1286       C  0.87886809  0.59751283  0.20975326     0.07300
C1287       C  0.88752824  0.59287215  0.17591830    -0.14800
C1288       C  0.87674641  0.60503273  0.14735006    -0.14800
C1289       C  0.85731862  0.62241352  0.15207468     0.07300
C1290       C  0.84684732  0.62484253  0.18534260    -0.14800
H1291       H  0.85070871  0.61687317  0.23956628     0.11300
H1292       H  0.90451292  0.58215803  0.17202482     0.11300
H1293       H  0.88569345  0.60331161  0.12233601     0.11300
H1294       H  0.83225988  0.63856855  0.18990226     0.11300
C1295       C  0.00543305  0.57974971  0.14431133    -0.14800
C1296       C  0.02940124  0.58895746  0.15208499     0.07300
C1297       C  0.03978583  0.58409680  0.18459445    -0.14800
C1298       C  0.02485597  0.57334474  0.21043565    -0.14800
C1299       C  0.99970529  0.56736832  0.20352575     0.07300
C1300       C  0.99085455  0.56876878  0.16966151    -0.14800
H1301       H  0.99735189  0.58220392  0.11886163     0.11300
H1302       H  0.05846281  0.59040760  0.19075372     0.11300
H1303       H  0.03198647  0.57258457  0.23661983     0.11300
H1304       H  0.97162769  0.56416766  0.16374531     0.11300
C1305       C  0.97594507  0.61081496  0.45039742    -0.14800
C1306       C  0.98668655  0.58930244  0.46557859     0.07300
C1307       C  0.97725552  0.56558493  0.45714464    -0.14800
C1308       C  0.95957689  0.56346456  0.43061609    -0.14800
C1309       C  0.95089656  0.58508047  0.41308945     0.07300
C1310       C  0.95778019  0.60876215  0.42498911    -0.14800
H1311       H  0.98285128  0.62933361  0.45645950     0.11300
H1312       H  0.98491875  0.54879604  0.46888516     0.11300
H1313       H  0.95461673  0.54490604  0.42135160     0.11300
H1314       H  0.95179669  0.62557100  0.41149864     0.11300
C1315       C  0.88080838  0.39469859  0.06281523    -0.14800
C1316       C  0.87901950  0.38137861  0.03149735     0.07300
C1317       C  0.86571706  0.35865011  0.03108551    -0.14800
C1318       C  0.85651141  0.34823202  0.06176070    -0.14800
C1319       C  0.86018271  0.36040330  0.09359538     0.07300
C1320       C  0.87127047  0.38436040  0.09364081    -0.14800
H1321       H  0.89169782  0.41179479  0.06406038     0.11300
H1322       H  0.86474288  0.34762305  0.00754109     0.11300
H1323       H  0.84860278  0.32951543  0.06106582     0.11300
H1324       H  0.87501927  0.39379155  0.11792783     0.11300
C1325       C  0.00937539  0.43444633  0.05156980    -0.14800
C1326       C  0.99709277  0.41142820  0.04695667     0.07300
C1327       C  0.00448524  0.39058696  0.06700988    -0.14800
C1328       C  0.02323293  0.39292935  0.09181818    -0.14800
C1329       C  0.03470253  0.41617713  0.09723637     0.07300
C1330       C  0.02790193  0.43681482  0.07662653    -0.14800
H1331       H  0.00490455  0.45056715  0.53694804     0.11300
H1332       H  0.99580710  0.37238778  0.06355184     0.11300
H1333       H  0.02753591  0.37707417  0.10834868     0.11300
H1334       H  0.03606690  0.45514413  0.08124806     0.11300
C1335       C  0.95359255  0.43188812  0.31803761    -0.14800
C1336       C  0.95579997  0.40952162  0.33707572     0.07300
C1337       C  0.97675253  0.39419380  0.33198189    -0.14800
C1338       C  0.99674191  0.40273713  0.31233432    -0.14800
C1339       C  0.99562117  0.42620962  0.29585932     0.07300
C1340       C  0.97330810  0.44005976  0.29713855    -0.14800
H1341       H  0.93790510  0.44437041  0.32240934     0.11300
H1342       H  0.97916668  0.37723444  0.34714253     0.11300
H1343       H  0.01333200  0.39113487  0.31065592     0.11300
H1344       H  0.97168714  0.45782440  0.28367939     0.11300
C1345       C  0.86087996  0.29437415  0.43171779    -0.14800
C1346       C  0.87413984  0.27219033  0.42502710     0.07300
C1347       C  0.90005000  0.27330144  0.41961575    -0.14800
C1348       C  0.91262050  0.29621520  0.42173649    -0.14800
C1349       C  0.89934823  0.31845535  0.42833017     0.07300
C1350       C  0.87334460  0.31735892  0.43299776    -0.14800
H1351       H  0.84083975  0.29397807  0.43537193     0.11300
H1352       H  0.91060758  0.25637436  0.41416887     0.11300
H1353       H  0.93267785  0.29655484  0.41828074     0.11300
H1354       H  0.86271480  0.33421022  0.43859175     0.11300
C1355       C  0.94821463  0.48283950  0.38590675    -0.14800
C1356       C  0.92636224  0.47791653  0.40487249     0.07300
C1357       C  0.90423980  0.49019621  0.39501008    -0.14800
C1358       C  0.90420982  0.50757376  0.36757259    -0.14800
C1359       C  0.92604068  0.51221257  0.34819908     0.07300
C1360       C  0.94799641  0.49943352  0.35773696    -0.14800
H1361       H  0.96538349  0.47305219  0.39203750     0.11300
H1362       H  0.88695975  0.48625680  0.40846263     0.11300
H1363       H  0.88708236  0.51746567  0.36156601     0.11300
H1364       H  0.96531532  0.50287482  0.34412058     0.11300
C1365       C  0.04655162  0.38087428  0.43587615    -0.14800
C1366       C  0.02616273  0.36429475  0.43507708     0.07300
C1367       C  0.03067521  0.33845463  0.43065154    -0.14800
C1368       C  0.05516314  0.32944834  0.42722055    -0.14800
C1369       C  0.07552556  0.34607004  0.42909363     0.07300
C1370       C  0.07091162  0.37185341  0.43325574    -0.14800
H1371       H  0.04374395  0.40085913  0.43959027     0.11300
H1372       H  0.01573365  0.32454920  0.93597632     0.11300
H1373       H  0.05866144  0.30888991  0.92982685     0.11300
H1374       H  0.08618566  0.38515387  0.43417558     0.11300
C1375       C  0.04757350  0.66554204  0.29797670    -0.14800
C1376       C  0.07024058  0.65243019  0.30088128     0.07300
C1377       C  0.06981021  0.62613283  0.30464600    -0.14800
C1378       C  0.04709262  0.61323842  0.30547709    -0.14800
C1379       C  0.02457143  0.62642083  0.30200925     0.07300
C1380       C  0.02497653  0.65262252  0.29817481    -0.14800
H1381       H  0.04729216  0.68582119  0.29544667     0.11300
H1382       H  0.08698384  0.61559445  0.30749319     0.11300
H1383       H  0.04712604  0.59293831  0.30772969     0.11300
H1384       H  0.00775326  0.66306978  0.29513412     0.11300
C1385       C  0.14142641  0.64891226  0.43754587    -0.14800
C1386       C  0.13724916  0.63916191  0.40424836     0.07300
C1387       C  0.12486292  0.61602389  0.40110495    -0.14800
C1388       C  0.11456740  0.60426255  0.43033943    -0.14800
C1389       C  0.11697152  0.61511465  0.46338194     0.07300
C1390       C  0.13179136  0.63676036  0.46687570    -0.14800
H1391       H  0.15029541  0.66705841  0.44061702     0.11300
H1392       H  0.12077023  0.60846710  0.37570996     0.11300
H1393       H  0.10275299  0.58797551  0.42673046     0.11300
H1394       H  0.13333164  0.64601558  0.49175562     0.11300
C1395       C  0.08426878  0.78649862  0.29489792    -0.14800
C1396       C  0.10984139  0.78298196  0.30141463     0.07300
C1397       C  0.12520542  0.80429638  0.30448852    -0.14800
C1398       C  0.11526660  0.82850896  0.30176839    -0.14800
C1399       C  0.08975024  0.83211941  0.29520925     0.07300
C1400       C  0.07438249  0.81083181  0.29134518    -0.14800
H1401       H  0.07195329  0.77046554  0.29255271     0.11300
H1402       H  0.14492550  0.80228747  0.30995485     0.11300
H1403       H  0.12767947  0.84444841  0.30440446     0.11300
H1404       H  0.05466217  0.81300681  0.28603038     0.11300
C1405       C  0.38669346  0.60958578  0.10438460    -0.14800
C1406       C  0.36530218  0.62491106  0.10381955     0.07300
C1407       C  0.35284704  0.62822274  0.07212964    -0.14800
C1408       C  0.36277097  0.61811280  0.04131361    -0.14800
C1409       C  0.38538819  0.60462168  0.04161409     0.07300
C1410       C  0.39660746  0.59959136  0.07371150    -0.14800
H1411       H  0.39720050  0.60745428  0.12814111     0.11300
H1412       H  0.33692296  0.64072847  0.07064555     0.11300
H1413       H  0.35425237  0.62316708  0.01689026     0.11300
H1414       H  0.41449128  0.59009530  0.07467090     0.11300
C1415       C  0.43190746  0.62296051  0.20229578    -0.14800
C1416       C  0.42887192  0.64878496  0.20858478     0.07300
C1417       C  0.44982512  0.66354562  0.21627955    -0.14800
C1418       C  0.47347643  0.65272544  0.21733068    -0.14800
C1419       C  0.47661378  0.62707173  0.21002777     0.07300
C1420       C  0.45566459  0.61221720  0.20272744    -0.14800
H1421       H  0.41604647  0.61126313  0.19590987     0.11300
H1422       H  0.44795132  0.68353387  0.22107746     0.11300
H1423       H  0.48936675  0.66446651  0.22344620     0.11300
H1424       H  0.45763048  0.59225575  0.19780818     0.11300
C1425       C  0.26171277  0.65811864  0.24640713    -0.14800
C1426       C  0.26865593  0.67830582  0.22479245     0.07300
C1427       C  0.25560407  0.70115244  0.22859060    -0.14800
C1428       C  0.23659349  0.70381998  0.25346722    -0.14800
C1429       C  0.22967611  0.68363749  0.27494877     0.07300
C1430       C  0.24217184  0.66059490  0.27058510    -0.14800
H1431       H  0.27155482  0.64036582  0.24480646     0.11300
H1432       H  0.26061026  0.71728978  0.21305615     0.11300
H1433       H  0.22667611  0.72153976  0.25514558     0.11300
H1434       H  0.23680957  0.64447935  0.28593808     0.11300
C1435       C  0.37123825  0.79389085  0.20512544    -0.14800
C1436       C  0.38719055  0.77335759  0.19932877     0.07300
C1437       C  0.41306933  0.77769244  0.19695156    -0.14800
C1438       C  0.42267474  0.80216006  0.20015239    -0.14800
C1439       C  0.40645076  0.82268074  0.20467024     0.07300
C1440       C  0.38071086  0.81821281  0.20738553    -0.14800
H1441       H  0.35122820  0.79129657  0.20671245     0.11300
H1442       H  0.42580604  0.76222859  0.19232164     0.11300
H1443       H  0.44260672  0.80513020  0.19809836     0.11300
H1444       H  0.36779707  0.83364236  0.21133549     0.11300
C1445       C  0.05202335  0.82680707  0.07537409    -0.14800
C1446       C  0.07283932  0.84282197  0.07623610     0.07300
C1447       C  0.06909724  0.86891790  0.07560763    -0.14800
C1448       C  0.04517559  0.87890427  0.07292248    -0.14800
C1449       C  0.02435092  0.86304556  0.07005679     0.07300
C1450       C  0.02792398  0.83685657  0.07179211    -0.14800
H1451       H  0.05446354  0.80660870  0.07627392     0.11300
H1452       H  0.08478173  0.88170462  0.07704782     0.11300
H1453       H  0.04314830  0.89913691  0.07153995     0.11300
H1454       H  0.01219066  0.82420086  0.06968709     0.11300
C1455       C  0.15419296  0.87711471  0.19049630    -0.14800
C1456       C  0.14714106  0.88128677  0.15595273     0.07300
C1457       C  0.13067445  0.90113686  0.14871037    -0.14800
C1458       C  0.11888249  0.91416992  0.17575731    -0.14800
C1459       C  0.12374078  0.90793660  0.21046985     0.07300
C1460       C  0.14285887  0.89059271  0.21750855    -0.14800
H1461       H  0.16643813  0.86155973  0.19682303     0.11300
H1462       H  0.12440193  0.90430493  0.12245416     0.11300
H1463       H  0.10374328  0.92691731  0.16956574     0.11300
H1464       H  0.14646730  0.88484422  0.24389468     0.11300
C1465       C  0.18026669  0.71044787  0.18580909    -0.14800
C1466       C  0.15739935  0.71050403  0.20364435     0.07300
C1467       C  0.14002829  0.72950359  0.19671933    -0.14800
C1468       C  0.14693597  0.75022545  0.17702294    -0.14800
C1469       C  0.17080161  0.75154465  0.16210358     0.07300
C1470       C  0.18684530  0.73078569  0.16478428    -0.14800
H1471       H  0.19421711  0.69629323  0.19153126     0.11300
H1472       H  0.12250843  0.73019757  0.21072376     0.11300
H1473       H  0.13374700  0.76551968  0.17412813     0.11300
H1474       H  0.20501733  0.73103221  0.15252188     0.11300
C1475       C  0.17931346  0.78900660  0.44458666    -0.14800
C1476       C  0.15805607  0.79418318  0.46477798     0.07300
C1477       C  0.13583330  0.78142777  0.45808938    -0.14800
C1478       C  0.13519080  0.76291144  0.43259754    -0.14800
C1479       C  0.15673493  0.75702871  0.41311267     0.07300
C1480       C  0.17863832  0.77069420  0.41884427    -0.14800
H1481       H  0.19688878  0.79820012  0.45007110     0.11300
H1482       H  0.11954395  0.78447207  0.47416962     0.11300
H1483       H  0.11775777  0.75311365  0.42834374     0.11300
H1484       H  0.19532264  0.76698777  0.40386344     0.11300
C1485       C  0.11671470  0.71539365  0.09869008    -0.14800
C1486       C  0.12561564  0.72957826  0.07065967     0.07300
C1487       C  0.12202791  0.72063195  0.03692251    -0.14800
C1488       C  0.10923710  0.69811339  0.03132383    -0.14800
C1489       C  0.10035024  0.68386974  0.05941346     0.07300
C1490       C  0.10446154  0.69259706  0.09315230    -0.14800
H1491       H  0.11939046  0.72186880  0.12495919     0.11300
H1492       H  0.12865199  0.73130094  0.01492165     0.11300
H1493       H  0.10648537  0.69173368  0.00499279     0.11300
H1494       H  0.09783324  0.68202189  0.11522315     0.11300
C1495       C  0.43986293  0.82370111  0.46317094    -0.14800
C1496       C  0.43191386  0.81851709  0.42937550     0.07300
C1497       C  0.44946146  0.81840756  0.40237726    -0.14800
C1498       C  0.47400427  0.82621177  0.40858747    -0.14800
C1499       C  0.48134903  0.83328004  0.44202510     0.07300
C1500       C  0.46448591  0.83072636  0.46945633    -0.14800
H1501       H  0.42669015  0.82366114  0.48442014     0.11300
H1502       H  0.44367521  0.81449323  0.37607572     0.11300
H1503       H  0.48653427  0.82888510  0.38692912     0.11300
H1504       H  0.46966431  0.83669229  0.49524567     0.11300
C1505       C  0.34321857  0.87194973  0.31646516    -0.14800
C1506       C  0.35472970  0.87455065  0.34897043     0.07300
C1507       C  0.37313365  0.89298129  0.35317781    -0.14800
C1508       C  0.38242643  0.90580634  0.32429215    -0.14800
C1509       C  0.37336139  0.90045250  0.29087582     0.07300
C1510       C  0.35230178  0.88503268  0.28763504    -0.14800
H1511       H  0.32920917  0.85756344  0.31254120     0.11300
H1512       H  0.38265245  0.89497669  0.37773261     0.11300
H1513       H  0.39897097  0.91727952  0.32741801     0.11300
H1514       H  0.34529495  0.88015354  0.26223672     0.11300
C1515       C  0.34983546  0.74689751  0.31808107    -0.14800
C1516       C  0.32724060  0.74699920  0.33652577     0.07300
C1517       C  0.31312044  0.72480561  0.33810786    -0.14800
C1518       C  0.31997693  0.70394826  0.31815719    -0.14800
C1519       C  0.34130368  0.70489518  0.29710809     0.07300
C1520       C  0.35716098  0.72574106  0.29945539    -0.14800
H1521       H  0.36160025  0.76342226  0.31730396     0.11300
H1522       H  0.29601172  0.72412714  0.35297954     0.11300
H1523       H  0.30711615  0.68833644  0.31596888     0.11300
H1524       H  0.37335960  0.72715405  0.28276198     0.11300
C1525       C  0.36466157  0.76796064  0.04253843    -0.14800
C1526       C  0.34275791  0.78106235  0.03502904     0.07300
C1527       C  0.32110973  0.77679756  0.05467320    -0.14800
C1528       C  0.32106736  0.75879350  0.08070000    -0.14800
C1529       C  0.34257437  0.74455847  0.08693568     0.07300
C1530       C  0.36452699  0.74965726  0.06815482    -0.14800
H1531       H  0.38129559  0.77059930  0.02703158     0.11300
H1532       H  0.30387493  0.78650789  0.04862514     0.11300
H1533       H  0.30415502  0.75566090  0.09540799     0.11300
H1534       H  0.38167485  0.73952585  0.07328319     0.11300
C1535       C  0.27731746  0.83307756  0.01477865    -0.14800
C1536       C  0.27267037  0.83250613  0.47812378     0.07300
C1537       C  0.24808182  0.83462706  0.46642222    -0.14800
C1538       C  0.22846707  0.83656937  0.49024167    -0.14800
C1539       C  0.23294058  0.83545772  0.02679656     0.07300
C1540       C  0.25755643  0.83364036  0.03855659    -0.14800
H1541       H  0.29615283  0.83103660  0.02453214     0.11300
H1542       H  0.24401656  0.83424565  0.43900173     0.11300
H1543       H  0.20957478  0.83767502  0.48044182     0.11300
H1544       H  0.26144450  0.83206132  0.06594067     0.11300
C1545       C  0.35794873  0.69767360  0.43108153    -0.14800
C1546       C  0.37091228  0.71835851  0.41742752     0.07300
C1547       C  0.39601890  0.71536129  0.40773951    -0.14800
C1548       C  0.40821034  0.69250392  0.41281980    -0.14800
C1549       C  0.39542621  0.67193756  0.42691062     0.07300
C1550       C  0.37005988  0.67452149  0.43543346    -0.14800
H1551       H  0.33853855  0.69944721  0.43852044     0.11300
H1552       H  0.40650993  0.73096281  0.39718970     0.11300
H1553       H  0.42780274  0.69098824  0.40619284     0.11300
H1554       H  0.35993108  0.65897801  0.44678931     0.11300
C1555       C  0.54111747  0.89163340  0.19130077    -0.14800
C1556       C  0.51993299  0.87727626  0.19911938     0.07300
C1557       C  0.52276457  0.85182085  0.20784085    -0.14800
C1558       C  0.54633998  0.84079802  0.20844079    -0.14800
C1559       C  0.56762558  0.85513355  0.20103873     0.07300
C1560       C  0.56486093  0.88068895  0.19259704    -0.14800
H1561       H  0.53936287  0.91143262  0.18521666     0.11300
H1562       H  0.50667723  0.84045410  0.21429669     0.11300
H1563       H  0.54792732  0.82100139  0.21465794     0.11300
H1564       H  0.58097573  0.89202605  0.18626388     0.11300
C1565       C  0.68028804  0.79512787  0.31072077    -0.14800
C1566       C  0.65778920  0.79573503  0.29202553     0.07300
C1567       C  0.64028912  0.77657917  0.29725238    -0.14800
C1568       C  0.64623687  0.75585997  0.31771113    -0.14800
C1569       C  0.66949854  0.75427173  0.33440017     0.07300
C1570       C  0.68595224  0.77470882  0.33220134    -0.14800
H1571       H  0.69450424  0.80917109  0.30598487     0.11300
H1572       H  0.62323447  0.77613658  0.28220043     0.11300
H1573       H  0.63275109  0.74080147  0.31990559     0.11300
H1574       H  0.70371684  0.77425460  0.34552415     0.11300
C1575       C  0.67674280  0.74234748  0.07758703    -0.14800
C1576       C  0.65519788  0.75690536  0.08227665     0.07300
C1577       C  0.63343759  0.75078592  0.06354039    -0.14800
C1578       C  0.63356955  0.73122895  0.03956603    -0.14800
C1579       C  0.65550285  0.71769237  0.03370864     0.07300
C1580       C  0.67688568  0.72294288  0.05345425    -0.14800
H1581       H  0.69353637  0.74609236  0.09225961     0.11300
H1582       H  0.61622752  0.76114174  0.06729350     0.11300
H1583       H  0.61717756  0.72797330  0.02381368     0.11300
H1584       H  0.69420560  0.71299668  0.04859679     0.11300
C1585       C  0.61003507  0.89324427  0.10224760    -0.14800
C1586       C  0.63055539  0.87690273  0.09944456     0.07300
C1587       C  0.64057926  0.87250797  0.06631627    -0.14800
C1588       C  0.62905677  0.88256465  0.03653728    -0.14800
C1589       C  0.60691409  0.89672732  0.03927035     0.07300
C1590       C  0.59835620  0.90296611  0.07264644    -0.14800
H1591       H  0.60136307  0.89634697  0.12719229     0.11300
H1592       H  0.65580966  0.85929505  0.06318014     0.11300
H1593       H  0.63577794  0.87680316  0.01133267     0.11300
H1594       H  0.58113353  0.91341373  0.07577541     0.11300
C1595       C  0.58592442  0.72483680  0.19928893    -0.14800
C1596       C  0.61169919  0.72859118  0.19469709     0.07300
C1597       C  0.62765919  0.70763117  0.19492300    -0.14800
C1598       C  0.61812618  0.68345946  0.19901976    -0.14800
C1599       C  0.59242069  0.67959445  0.20358568     0.07300
C1600       C  0.57639060  0.70054292  0.20414933    -0.14800
H1601       H  0.57317567  0.74064936  0.19908615     0.11300
H1602       H  0.64755487  0.70982827  0.19106397     0.11300
H1603       H  0.63098901  0.66773299  0.19886900     0.11300
H1604       H  0.55650112  0.69809375  0.20772658     0.11300
C1605       C  0.94893324  0.83953278  0.28120727    -0.14800
C1606       C  0.92730437  0.85222352  0.29187231     0.07300
C1607       C  0.92862545  0.87794422  0.29988884    -0.14800
C1608       C  0.95137647  0.89061584  0.29825903    -0.14800
C1609       C  0.97306387  0.87790282  0.28785877     0.07300
C1610       C  0.97157154  0.85236060  0.27873529    -0.14800
H1611       H  0.94833841  0.81967794  0.27498594     0.11300
H1612       H  0.91221769  0.88805355  0.30853503     0.11300
H1613       H  0.95196541  0.91041320  0.30481501     0.11300
H1614       H  0.98800975  0.84220480  0.27030099     0.11300
C1615       C  0.88272640  0.88691681  0.39631492    -0.14800
C1616       C  0.86307276  0.86946986  0.39802266     0.07300
C1617       C  0.85280303  0.86389742  0.43056467    -0.14800
C1618       C  0.86316360  0.87414546  0.46088658    -0.14800
C1619       C  0.88424593  0.88981822  0.45927279     0.07300
C1620       C  0.89332031  0.89683668  0.42660254    -0.14800
H1621       H  0.89161809  0.89082159  0.37174101     0.11300
H1622       H  0.83835774  0.84977691  0.43278275     0.11300
H1623       H  0.85637733  0.86768997  0.48572551     0.11300
H1624       H  0.91002512  0.90818196  0.42461484     0.11300
C1625       C  0.81825702  0.79339617  0.18218882    -0.14800
C1626       C  0.84107810  0.79405457  0.20003757     0.07300
C1627       C  0.85877046  0.77521308  0.19371614    -0.14800
C1628       C  0.85200463  0.75371956  0.17547610    -0.14800
C1629       C  0.82805254  0.75158591  0.16105478     0.07300
C1630       C  0.81182559  0.77229473  0.16252986    -0.14800
H1631       H  0.80413140  0.80751843  0.18726718     0.11300
H1632       H  0.87633217  0.77516271  0.20762334     0.11300
H1633       H  0.86527891  0.73840941  0.17365255     0.11300
H1634       H  0.79355643  0.77143003  0.15062604     0.11300
C1635       C  0.86187827  0.74038852  0.42520641    -0.14800
C1636       C  0.83981002  0.74958862  0.40987977     0.07300
C1637       C  0.81681925  0.73933893  0.41957004    -0.14800
C1638       C  0.81582340  0.72161359  0.44604867    -0.14800
C1639       C  0.83782947  0.71359504  0.46266143     0.07300
C1640       C  0.86090288  0.72239236  0.45121386    -0.14800
H1641       H  0.88002149  0.74723972  0.41725470     0.11300
H1642       H  0.79966963  0.74554401  0.40746380     0.11300
H1643       H  0.79774093  0.71511105  0.45481452     0.11300
H1644       H  0.87799550  0.71675962  0.46401457     0.11300
C1645       C  0.75792048  0.84577010  0.26190454    -0.14800
C1646       C  0.76754227  0.82222290  0.27202783     0.07300
C1647       C  0.75705035  0.80057109  0.25695742    -0.14800
C1648       C  0.73789442  0.80237170  0.23222276    -0.14800
C1649       C  0.72810710  0.82584637  0.22225880     0.07300
C1650       C  0.73807248  0.84752203  0.23802605    -0.14800
H1651       H  0.76585127  0.86287566  0.27237135     0.11300
H1652       H  0.76435513  0.78216401  0.26329792     0.11300
H1653       H  0.73019752  0.78521096  0.22156624     0.11300
H1654       H  0.73059286  0.86585869  0.23170911     0.11300
C1655       C  0.91453342  0.71823017  0.30685412    -0.14800
C1656       C  0.88871709  0.72236928  0.30296314     0.07300
C1657       C  0.87310129  0.70144407  0.29783400    -0.14800
C1658       C  0.88288363  0.67707784  0.29719493    -0.14800
C1659       C  0.90860174  0.67293896  0.30100742     0.07300
C1660       C  0.92441127  0.69378160  0.30542647    -0.14800
H1661       H  0.92707849  0.73385572  0.31121132     0.11300
H1662       H  0.85313176  0.70380251  0.29510201     0.11300
H1663       H  0.87030815  0.66142517  0.29311393     0.11300
H1664       H  0.94434630  0.69112623  0.30820650     0.11300
Fe1665     Fe  0.82822315  0.77745315  0.80664896     1.65800
Fe1666     Fe  0.88190654  0.79859267  0.84291927     1.73200
Fe1667     Fe  0.84672045  0.83833732  0.79510303     1.54400
O1668       O  0.85013215  0.82230479  0.74608544    -0.83100
O1669       O  0.87555040  0.83214804  0.86944884    -0.81500
O1670       O  0.83079340  0.78513722  0.75526829    -0.85700
O1671       O  0.79616261  0.79932581  0.80922639    -0.80500
O1672       O  0.88372678  0.84912149  0.79507851    -0.82300
O1673       O  0.86243202  0.77917870  0.87957843    -0.85000
C1674       C  0.79166481  0.81911571  0.79198809     0.95700
C1675       C  0.84086053  0.80144564  0.73569679     1.03200
O1676       O  0.85192825  0.80469775  0.81542191    -1.14000
O1677       O  0.89151831  0.76457894  0.82047248    -0.76400
O1678       O  0.85538556  0.74998642  0.80111752    -0.79900
O1679       O  0.80827924  0.83574746  0.78782817    -0.80600
C1680       C  0.87837705  0.74702925  0.80784453     0.94600
O1681       O  0.82537834  0.76747272  0.85805770    -0.78600
O1682       O  0.90565172  0.81549998  0.80847235    -0.83800
C1683       C  0.86038312  0.85072235  0.86906788     0.97300
C1684       C  0.90436140  0.83788440  0.79808176     1.03200
O1685       O  0.84445969  0.85435705  0.84470188    -0.79400
C1686       C  0.84227302  0.76672486  0.88121516     1.01500
Fe1687     Fe  0.67058071  0.78547836  0.68412141     1.65800
Fe1688     Fe  0.61493689  0.80489190  0.65270813     1.73200
Fe1689     Fe  0.64930088  0.84463470  0.70055887     1.54400
O1690       O  0.64637583  0.82617164  0.74829078    -0.83100
O1691       O  0.61953409  0.83929075  0.62727167    -0.81500
O1692       O  0.67026153  0.79214904  0.73607769    -0.85700
O1693       O  0.70027737  0.80975883  0.67867154    -0.80500
O1694       O  0.61183405  0.85499413  0.69997666    -0.82300
O1695       O  0.63326288  0.78704313  0.61363192    -0.85000
C1696       C  0.70467706  0.82665143  0.70098740     0.95700
C1697       C  0.65826184  0.80613134  0.75701009     1.03200
O1698       O  0.64533286  0.81154894  0.67834283    -1.14000
O1699       O  0.60771713  0.77040907  0.67498821    -0.76400
O1700       O  0.64508655  0.75689513  0.69157341    -0.79900
O1701       O  0.68791143  0.84249882  0.70873900    -0.80600
C1702       C  0.62190060  0.75344690  0.68696341     0.94600
O1703       O  0.67131011  0.77626364  0.63238574    -0.78600
O1704       O  0.59243132  0.81960333  0.69001057    -0.83800
C1705       C  0.63449488  0.85807161  0.62740533     0.97300
C1706       C  0.59190429  0.84251761  0.69753069     1.03200
O1707       O  0.65086537  0.86170826  0.65137320    -0.79400
C1708       C  0.65353005  0.77492855  0.61060674     1.01500
Fe1709     Fe  0.31605141  0.77978075  0.93260083     1.65800
Fe1710     Fe  0.36340702  0.79520716  0.87761967     1.73200
Fe1711     Fe  0.35197248  0.83127206  0.94764624     1.54400
O1712       O  0.31486729  0.83662444  0.96220604    -0.83100
O1713       O  0.39789675  0.80059870  0.89939636    -0.81500
O1714       O  0.29121837  0.80964205  0.93264338    -0.85700
O1715       O  0.32152263  0.78614067  0.98407353    -0.80500
O1716       O  0.34838682  0.85600328  0.90562948    -0.82300
O1717       O  0.36708908  0.75780222  0.89172969    -0.85000
C1718       C  0.34038640  0.79288856  0.50051965     0.95700
C1719       C  0.29368901  0.82706315  0.95509616     1.03200
O1720       O  0.34410856  0.80206140  0.91917986    -1.14000
O1721       O  0.33079547  0.78979057  0.85253706    -0.76400
O1722       O  0.30583229  0.76731450  0.88368134    -0.79900
O1723       O  0.35660248  0.80815308  0.48905634    -0.80600
C1724       C  0.31944487  0.76948965  0.85731768     0.94600
O1725       O  0.34018247  0.74923797  0.93464056    -0.78600
O1726       O  0.36144527  0.83197215  0.86144446    -0.83800
C1727       C  0.40514024  0.81550066  0.92276744     0.97300
C1728       C  0.35447967  0.85297946  0.87389393     1.03200
O1729       O  0.39014830  0.82894657  0.94021639    -0.79400
C1730       C  0.35843629  0.74326637  0.91501876     1.01500
Fe1731     Fe  0.18305388  0.78720871  0.56549212     1.65800
Fe1732     Fe  0.13600621  0.80388656  0.61964687     1.73200
Fe1733     Fe  0.15373918  0.84281272  0.55581049     1.54400
O1734       O  0.19142483  0.84389763  0.54202537    -0.83100
O1735       O  0.10313026  0.81352986  0.59525395    -0.81500
O1736       O  0.21097619  0.81371386  0.57127120    -0.85700
O1737       O  0.18031570  0.79816255  0.51507361    -0.80500
O1738       O  0.15969222  0.86423629  0.60051971    -0.82300
O1739       O  0.13039798  0.76721125  0.60261583    -0.85000
C1740       C  0.16197481  0.80617751  0.99854937     0.95700
C1741       C  0.21122719  0.83178397  0.54959241     1.03200
O1742       O  0.15747954  0.81138954  0.58078044    -1.14000
O1743       O  0.16674656  0.79404107  0.64707926    -0.76400
O1744       O  0.18928410  0.77025751  0.61305226    -0.79900
O1745       O  0.14659803  0.82199392  0.01127392    -0.80600
C1746       C  0.17729154  0.77336564  0.64083471     0.94600
O1747       O  0.15570677  0.76044953  0.55729509    -0.78600
O1748       O  0.13984565  0.83993916  0.63926660    -0.83800
C1749       C  0.09867672  0.83352570  0.57866146     0.97300
C1750       C  0.14995159  0.86065058  0.63037858     1.03200
O1751       O  0.11588664  0.84639998  0.56482624    -0.79400
C1752       C  0.13779073  0.75396324  0.57707391     1.01500
Fe1753     Fe  0.32741537  0.71795730  0.69112808     1.65800
Fe1754     Fe  0.38125673  0.69683256  0.65551861     1.73200
Fe1755     Fe  0.34683703  0.65802816  0.70419912     1.54400
O1756       O  0.35058667  0.67540448  0.75240431    -0.83100
O1757       O  0.37730921  0.66159022  0.63217921    -0.81500
O1758       O  0.32556825  0.70865877  0.74226133    -0.85700
O1759       O  0.29710132  0.69510876  0.68183494    -0.80500
O1760       O  0.38436677  0.64792773  0.70381383    -0.82300
O1761       O  0.36152681  0.71210031  0.61597699    -0.85000
C1762       C  0.29186590  0.67779061  0.70320376     0.95700
C1763       C  0.33845781  0.69490271  0.76227539     1.03200
O1764       O  0.35146533  0.69112246  0.68285411    -1.14000
O1765       O  0.38853414  0.73254355  0.67449407    -0.76400
O1766       O  0.35437601  0.74424997  0.70298652    -0.79900
O1767       O  0.30824302  0.66155586  0.71129298    -0.80600
C1768       C  0.37640230  0.74841466  0.69235388     0.94600
O1769       O  0.32835394  0.73046015  0.64067283    -0.78600
O1770       O  0.40396545  0.68341329  0.69349518    -0.83800
C1771       C  0.36140141  0.64369652  0.63174755     0.97300
C1772       C  0.40425061  0.66068621  0.70238378     1.03200
O1773       O  0.34439397  0.64126064  0.65498404    -0.79400
C1774       C  0.34367865  0.72774391  0.61578887     1.01500
Fe1775     Fe  0.17019585  0.72761876  0.80976267     1.65800
Fe1776     Fe  0.11605056  0.70738471  0.84515732     1.73200
Fe1777     Fe  0.15151745  0.66669149  0.79947253     1.54400
O1778       O  0.14819844  0.68198704  0.74994182    -0.83100
O1779       O  0.12321811  0.67497286  0.87411920    -0.81500
O1780       O  0.16845559  0.71880242  0.75859504    -0.85700
O1781       O  0.20193154  0.70561709  0.81398106    -0.80500
O1782       O  0.11458826  0.65518326  0.80043175    -0.82300
O1783       O  0.13454677  0.72816446  0.88100789    -0.85000
C1784       C  0.20630080  0.68613674  0.79602014     0.95700
C1785       C  0.15830538  0.70239911  0.73919486     1.03200
O1786       O  0.14624604  0.70067611  0.81861152    -1.14000
O1787       O  0.10641269  0.74032602  0.81970866    -0.76400
O1788       O  0.14317421  0.75483494  0.80243541    -0.79900
O1789       O  0.18978718  0.66946643  0.79177205    -0.80600
C1790       C  0.11993222  0.75767634  0.80727748     0.94600
O1791       O  0.17227102  0.73861728  0.86101220    -0.78600
O1792       O  0.09285274  0.68918887  0.81167046    -0.83800
C1793       C  0.13876390  0.65664425  0.87451151     0.97300
C1794       C  0.09391687  0.66635988  0.80345828     1.03200
O1795       O  0.15408547  0.65208365  0.84967159    -0.79400
C1796       C  0.15492145  0.74003865  0.88350658     1.01500
Fe1797     Fe  0.96819587  0.42239465  0.94352024     1.65800
Fe1798     Fe  0.95036235  0.36680172  0.97831687     1.73200
Fe1799     Fe  0.90952061  0.39997431  0.92979067     1.54400
O1800       O  0.91020406  0.43859450  0.92200973    -0.83100
O1801       O  0.93517013  0.34215139  0.94347901    -0.81500
O1802       O  0.94381045  0.45202513  0.94873578    -0.85700
O1803       O  0.96082668  0.42091846  0.89195858    -0.80500
O1804       O  0.89311254  0.40160543  0.97906559    -0.82300
O1805       O  0.98447259  0.35959745  0.95541038    -0.85000
C1806       C  0.94630946  0.40913969  0.87164656     0.95700
C1807       C  0.92614309  0.45559269  0.92757543     1.03200
O1808       O  0.94282630  0.39663815  0.95103565    -1.14000
O1809       O  0.96937910  0.38655801  0.51571485    -0.76400
O1810       O  0.97810124  0.42473164  0.99481613    -0.79900
O1811       O  0.92658655  0.39739104  0.88122531    -0.80600
C1812       C  0.98003024  0.40775645  0.51845019     0.94600
O1813       O  0.99671831  0.39694442  0.93612853    -0.78600
O1814       O  0.91708849  0.37168478  0.50480383    -0.83800
C1815       C  0.91273988  0.34207081  0.93387581     0.97300
C1816       C  0.89728112  0.38565559  0.00337783     1.03200
O1817       O  0.90064739  0.36224301  0.93018085    -0.79400
C1818       C  0.00078082  0.37386834  0.94208099     1.01500
Fe1819     Fe  0.97054675  0.56528580  0.80674643     1.65800
Fe1820     Fe  0.95160398  0.61214816  0.75389430     1.73200
Fe1821     Fe  0.91129641  0.58898349  0.81210276     1.54400
O1822       O  0.91225298  0.55067598  0.82481522    -0.83100
O1823       O  0.94035173  0.64308785  0.78197015    -0.81500
O1824       O  0.94686832  0.53505235  0.80165123    -0.85700
O1825       O  0.95943534  0.56832523  0.85700812    -0.80500
O1826       O  0.89339433  0.58284497  0.76425890    -0.82300
O1827       O  0.98736736  0.61919733  0.77036458    -0.85000
C1828       C  0.94496920  0.58248614  0.87408183     0.95700
C1829       C  0.92800204  0.53285151  0.82145179     1.03200
O1830       O  0.94454259  0.58880061  0.79100869    -1.14000
O1831       O  0.96307066  0.58306907  0.72332344    -0.76400
O1832       O  0.98642024  0.55996511  0.75852420    -0.79900
O1833       O  0.92756352  0.59552836  0.86028293    -0.80600
C1834       C  0.98151845  0.56875357  0.72887814     0.94600
O1835       O  0.99629017  0.59367653  0.81440889    -0.78600
O1836       O  0.91693467  0.60829703  0.73196409    -0.83800
C1837       C  0.91916773  0.64618553  0.79585551     0.97300
C1838       C  0.89741937  0.59524424  0.73642824     1.03200
O1839       O  0.90568385  0.62766740  0.80510944    -0.79400
C1840       C  0.00148478  0.61205986  0.79472815     1.01500
Fe1841     Fe  0.53422765  0.56891269  0.70085171     1.65800
Fe1842     Fe  0.55170523  0.61813575  0.75164799     1.73200
Fe1843     Fe  0.59035252  0.59712165  0.68929368     1.54400
O1844       O  0.59116146  0.55942959  0.67514933    -0.83100
O1845       O  0.56247044  0.64979007  0.72461905    -0.81500
O1846       O  0.56048231  0.54062315  0.70347816    -0.85700
O1847       O  0.54261735  0.57329703  0.64970081    -0.80500
O1848       O  0.61066191  0.59059353  0.73438004    -0.82300
O1849       O  0.51596093  0.62480442  0.73498521    -0.85000
C1850       C  0.55288484  0.59065884  0.63251324     0.95700
C1851       C  0.57838198  0.53998751  0.68187707     1.03200
O1852       O  0.55867413  0.59467387  0.71437385    -1.14000
O1853       O  0.53953138  0.58972462  0.78275323    -0.76400
O1854       O  0.52066457  0.56167137  0.74978605    -0.79900
O1855       O  0.57016543  0.60463645  0.64452615    -0.80600
C1856       C  0.52106230  0.57573879  0.77616824     0.94600
O1857       O  0.50596061  0.59520706  0.69622493    -0.78600
O1858       O  0.58704995  0.61296729  0.77145518    -0.83800
C1859       C  0.58262361  0.65335117  0.70836836     0.97300
C1860       C  0.60696870  0.60109558  0.76372229     1.03200
O1861       O  0.59553483  0.63521269  0.69697396    -0.79400
C1862       C  0.50091152  0.61491799  0.71360338     1.01500
Fe1863     Fe  0.54231960  0.43224497  0.56668126     1.65800
Fe1864     Fe  0.55800926  0.38471315  0.51387226     1.73200
Fe1865     Fe  0.60053197  0.40680880  0.57031221     1.54400
O1866       O  0.60076370  0.44555027  0.58196501    -0.83100
O1867       O  0.56931143  0.35361483  0.54144569    -0.81500
O1868       O  0.56704229  0.46039683  0.55596133    -0.85700
O1869       O  0.55563743  0.43082133  0.61603390    -0.80500
O1870       O  0.61748931  0.41219399  0.52215558    -0.82300
O1871       O  0.52239850  0.37933675  0.53292243    -0.85000
C1872       C  0.56879840  0.41542761  0.63296365     0.95700
C1873       C  0.58524532  0.46331551  0.57653672     1.03200
O1874       O  0.56686854  0.40766736  0.55044614    -1.14000
O1875       O  0.54576429  0.41360874  0.98372667    -0.76400
O1876       O  0.52419367  0.43669851  0.52027888    -0.79900
O1877       O  0.58491000  0.40094577  0.61894495    -0.80600
C1878       C  0.52793824  0.42838509  0.99074382     0.94600
O1879       O  0.51633826  0.40491922  0.57806939    -0.78600
O1880       O  0.59197771  0.38745581  0.99067576    -0.83800
C1881       C  0.59057217  0.34971169  0.55477434     0.97300
C1882       C  0.61248612  0.39998098  0.49454711     1.03200
O1883       O  0.60488990  0.36776266  0.56359465    -0.79400
C1884       C  0.50931118  0.38724583  0.55812505     1.01500
Fe1885     Fe  0.81513988  0.21591136  0.93772293     1.65800
Fe1886     Fe  0.86187871  0.19658899  0.88429694     1.73200
Fe1887     Fe  0.84110879  0.15759673  0.94697155     1.54400
O1888       O  0.84793148  0.17844552  0.49205001    -0.83100
O1889       O  0.85704700  0.16116694  0.86375170    -0.81500
O1890       O  0.81917721  0.20676512  0.98864969    -0.85700
O1891       O  0.78581596  0.19094441  0.93503065    -0.80500
O1892       O  0.87932499  0.15311726  0.94054887    -0.82300
O1893       O  0.83247850  0.20859334  0.85543987    -0.85000
C1894       C  0.78438045  0.17215606  0.95535521     0.95700
C1895       C  0.83498976  0.19651880  0.50434391     1.03200
O1896       O  0.83933610  0.18996943  0.92272856    -1.14000
O1897       O  0.86961382  0.23244802  0.90091284    -0.76400
O1898       O  0.84283469  0.24274886  0.94294567    -0.79900
O1899       O  0.80291978  0.15747309  0.96012042    -0.80600
C1900       C  0.86178010  0.24734973  0.92411831     0.94600
O1901       O  0.80821906  0.23112257  0.88924520    -0.78600
O1902       O  0.89334364  0.18554343  0.91026993    -0.83800
C1903       C  0.84649444  0.14053326  0.87146238     0.97300
C1904       C  0.89709561  0.16611109  0.92828244     1.03200
O1905       O  0.83592968  0.13677095  0.90084114    -0.79400
C1906       C  0.82131974  0.22893467  0.86218985     1.01500
Fe1907     Fe  0.67123495  0.21091043  0.57008696     1.65800
Fe1908     Fe  0.61574481  0.19506952  0.60520923     1.73200
Fe1909     Fe  0.64665984  0.15256355  0.55761042     1.54400
O1910       O  0.64308218  0.16963288  0.50940736    -0.83100
O1911       O  0.61899128  0.16066987  0.63116590    -0.81500
O1912       O  0.66910785  0.20253350  0.51852482    -0.85700
O1913       O  0.69926437  0.18482390  0.57639533    -0.80500
O1914       O  0.60871265  0.14446941  0.56097310    -0.82300
O1915       O  0.63658708  0.21095659  0.64287948    -0.85000
C1916       C  0.70259776  0.16746813  0.55446102     0.95700
C1917       C  0.65577701  0.18806315  0.99899747     1.03200
O1918       O  0.64485308  0.18643481  0.57813987    -1.14000
O1919       O  0.61024943  0.23035881  0.58335541    -0.76400
O1920       O  0.64733130  0.24108204  0.56228214    -0.79900
O1921       O  0.68500027  0.15248571  0.54737730    -0.80600
C1922       C  0.62479715  0.24632256  0.56955188     0.94600
O1923       O  0.67389645  0.22137004  0.62127778    -0.78600
O1924       O  0.59136801  0.18126714  0.56935201    -0.83800
C1925       C  0.63361931  0.14158390  0.63145586     0.97300
C1926       C  0.58948087  0.15812917  0.56332218     1.03200
O1927       O  0.64931094  0.13687145  0.60710585    -0.79400
C1928       C  0.65754935  0.22175146  0.64514402     1.01500
Fe1929     Fe  0.03041129  0.08172772  0.94459420     1.65800
Fe1930     Fe  0.04840808  0.13700239  0.97957738     1.73200
Fe1931     Fe  0.08924796  0.10397219  0.93025254     1.54400
O1932       O  0.08867765  0.06552976  0.92143423    -0.83100
O1933       O  0.06526258  0.16223229  0.94716792    -0.81500
O1934       O  0.05465123  0.05166870  0.94657398    -0.85700
O1935       O  0.03678431  0.08493746  0.89275880    -0.80500
O1936       O  0.10551710  0.10195082  0.97950847    -0.82300
O1937       O  0.01530712  0.14538756  0.95485540    -0.85000
C1938       C  0.05194005  0.09588376  0.87235711     0.95700
C1939       C  0.07242079  0.04862208  0.92536351     1.03200
O1940       O  0.05597067  0.10735917  0.95181324    -1.14000
O1941       O  0.02946372  0.11781239  0.51508162    -0.76400
O1942       O  0.02163946  0.07801577  0.99645910    -0.79900
O1943       O  0.07219551  0.10674612  0.88182145    -0.80600
C1944       C  0.01864119  0.09668619  0.51743272     0.94600
O1945       O  0.00170810  0.10729265  0.94067510    -0.78600
O1946       O  0.08198895  0.13198844  0.50515885    -0.83800
C1947       C  0.08721913  0.16183637  0.93566846     0.97300
C1948       C  0.10052826  0.11640697  0.00531575     1.03200
O1949       O  0.09866520  0.14147020  0.93062079    -0.79400
C1950       C  0.99816067  0.13064715  0.94494081     1.01500
Fe1951     Fe  0.02676720  0.93968981  0.79798311     1.65800
Fe1952     Fe  0.04804465  0.89243378  0.74592981     1.73200
Fe1953     Fe  0.08506396  0.91473031  0.80959831     1.54400
O1954       O  0.08391336  0.95292046  0.82340181    -0.83100
O1955       O  0.05936841  0.86099006  0.77252459    -0.81500
O1956       O  0.05088949  0.96991080  0.79762946    -0.85700
O1957       O  0.03450300  0.93502058  0.84920771    -0.80500
O1958       O  0.10600244  0.92117953  0.76449752    -0.82300
O1959       O  0.01227030  0.88377700  0.76101824    -0.85000
C1960       C  0.04734327  0.91992757  0.86716720     0.95700
C1961       C  0.06911242  0.97137507  0.81868219     1.03200
O1962       O  0.05327927  0.91564968  0.78432411    -1.14000
O1963       O  0.03600435  0.92165771  0.71646972    -0.76400
O1964       O  0.01348101  0.94694514  0.74855293    -0.79900
O1965       O  0.06562506  0.90723693  0.85511106    -0.80600
C1966       C  0.01546375  0.93235258  0.72283724     0.94600
O1967       O  0.00030876  0.91146094  0.80120789    -0.78600
O1968       O  0.08350970  0.89830335  0.72705053    -0.83800
C1969       C  0.07912012  0.85788533  0.78985755     0.97300
C1970       C  0.10328030  0.91005020  0.73533629     1.03200
O1971       O  0.09120903  0.87630754  0.80240440    -0.79400
C1972       C  0.99661260  0.89188854  0.78296199     1.01500
Fe1973     Fe  0.18484076  0.28821463  0.93418005     1.65800
Fe1974     Fe  0.13689110  0.30674692  0.88224134     1.73200
Fe1975     Fe  0.15748322  0.34548067  0.94479528     1.54400
O1976       O  0.15018215  0.32552646  0.48985848    -0.83100
O1977       O  0.14088652  0.34255387  0.86234295    -0.81500
O1978       O  0.18147997  0.29764940  0.98533403    -0.85700
O1979       O  0.21342927  0.31394773  0.93037876    -0.80500
O1980       O  0.11922588  0.35013979  0.93736020    -0.82300
O1981       O  0.16638076  0.29586955  0.85289907    -0.85000
C1982       C  0.21476832  0.33200835  0.95196927     0.95700
C1983       C  0.16413762  0.30825415  0.50220660     1.03200
O1984       O  0.15977668  0.31352974  0.92001059    -1.14000
O1985       O  0.13029472  0.27062996  0.89887118    -0.76400
O1986       O  0.15779490  0.26084176  0.94030497    -0.79900
O1987       O  0.19576083  0.34576120  0.95851156    -0.80600
C1988       C  0.13867094  0.25594405  0.92196498     0.94600
O1989       O  0.19112692  0.27308370  0.88537858    -0.78600
O1990       O  0.10535763  0.31679008  0.90894650    -0.83800
C1991       C  0.15182914  0.36305384  0.86997604     0.97300
C1992       C  0.10148124  0.33689653  0.92545645     1.03200
O1993       O  0.16288363  0.36658760  0.89909699    -0.79400
C1994       C  0.17737763  0.27537830  0.85898463     1.01500
Fe1995     Fe  0.32934891  0.29279127  0.56769582     1.65800
Fe1996     Fe  0.38337207  0.31044217  0.60555765     1.73200
Fe1997     Fe  0.35317045  0.35131171  0.55403269     1.54400
O1998       O  0.35755174  0.33314691  0.00630898    -0.83100
O1999       O  0.37919190  0.34538732  0.62943594    -0.81500
O2000       O  0.33162184  0.30047555  0.51616185    -0.85700
O2001       O  0.30028467  0.31810265  0.57225691    -0.80500
O2002       O  0.39119449  0.35953920  0.55756817    -0.82300
O2003       O  0.36192044  0.29497512  0.64323017    -0.85000
C2004       C  0.29715225  0.33568339  0.55051843     0.95700
C2005       C  0.34499275  0.31401759  0.99609250     1.03200
O2006       O  0.35493364  0.31801497  0.57634812    -1.14000
O2007       O  0.39018696  0.27496930  0.58566070    -0.76400
O2008       O  0.35451264  0.26373053  0.56077716    -0.79900
O2009       O  0.31482480  0.35067023  0.54360120    -0.80600
C2010       C  0.37675280  0.25898221  0.57004295     0.94600
O2011       O  0.32628489  0.28216081  0.61885515    -0.78600
O2012       O  0.40841912  0.32327926  0.57017848    -0.83800
C2013       C  0.36475341  0.36453046  0.62785906     0.97300
C2014       C  0.41035646  0.34596656  0.56176995     1.03200
O2015       O  0.34973115  0.36852758  0.60255466    -0.79400
C2016       C  0.34200956  0.28217026  0.64353464     1.01500
Fe2017     Fe  0.02107884  0.59614425  0.56162839     1.65800
Fe2018     Fe  0.04954383  0.63290127  0.50573569     1.73200
Fe2019     Fe  0.08326095  0.60491879  0.56948592     1.54400
O2020       O  0.06652358  0.60050710  0.61883337    -0.83100
O2021       O  0.07478758  0.61174221  0.98063438    -0.81500
O2022       O  0.03037678  0.61579312  0.60439166    -0.85700
O2023       O  0.03969568  0.56381807  0.57884284    -0.80500
O2024       O  0.08696299  0.64324645  0.57668526    -0.82300
O2025       O  0.02033916  0.61333478  0.98305626    -0.85000
C2026       C  0.06167408  0.55450697  0.58052963     0.95700
C2027       C  0.04358650  0.60401086  0.62551128     1.03200
O2028       O  0.05160890  0.61005495  0.54422129    -1.14000
O2029       O  0.02302896  0.65623677  0.52900341    -0.76400
O2030       O  0.99849185  0.62595384  0.54892634    -0.79900
O2031       O  0.08037986  0.56573168  0.56679191    -0.80600
C2032       C  0.00217610  0.64861834  0.54064853     0.94600
O2033       O  0.01097882  0.57924531  0.51573759    -0.78600
O2034       O  0.07750431  0.65644663  0.52363466    -0.83800
C2035       C  0.09798153  0.60988347  0.49042270     0.97300
C2036       C  0.08750423  0.65984842  0.55305266     1.03200
O2037       O  0.10404048  0.60831913  0.52250964    -0.79400
C2038       C  0.00762240  0.59346013  0.98783595     1.01500
Fe2039     Fe  0.02812895  0.44146506  0.70009360     1.65800
Fe2040     Fe  0.04866361  0.39412305  0.75171241     1.73200
Fe2041     Fe  0.08546982  0.41536404  0.68754256     1.54400
O2042       O  0.06460364  0.40741688  0.64321307    -0.83100
O2043       O  0.08444250  0.39883051  0.77008139    -0.81500
O2044       O  0.03682528  0.43840315  0.64878514    -0.85700
O2045       O  0.05342295  0.47044516  0.70374264    -0.80500
O2046       O  0.09078746  0.37694469  0.69492122    -0.82300
O2047       O  0.03836564  0.42427354  0.78049767    -0.85000
C2048       C  0.07038452  0.47249082  0.68082206     0.95700
C2049       C  0.04672400  0.42083149  0.63157343     1.03200
O2050       O  0.05407747  0.41682249  0.71327007    -1.14000
O2051       O  0.01242834  0.38674082  0.73676052    -0.76400
O2052       O  0.00134323  0.41351320  0.69482932    -0.79900
O2053       O  0.08459023  0.45389924  0.67357020    -0.80600
C2054       C  0.99716913  0.39445204  0.71395669     0.94600
O2055       O  0.01367281  0.44764433  0.74912053    -0.78600
O2056       O  0.05880169  0.36228581  0.72519194    -0.83800
C2057       C  0.10440945  0.41022948  0.76179539     0.97300
C2058       C  0.07841032  0.35879111  0.70764096     1.03200
O2059       O  0.10718568  0.42137372  0.73254451    -0.79400
C2060       C  0.01730073  0.43413851  0.77547147     1.01500
Fe2061     Fe  0.96960515  0.92444458  0.55783775     1.65800
Fe2062     Fe  0.95162769  0.87002233  0.51946590     1.73200
Fe2063     Fe  0.90970571  0.90359252  0.56565734     1.54400
O2064       O  0.92454710  0.89975637  0.61555569    -0.83100
O2065       O  0.91977787  0.87686964  0.98969780    -0.81500
O2066       O  0.95934517  0.92310695  0.60849244    -0.85700
O2067       O  0.94640819  0.95489587  0.55074592    -0.80500
O2068       O  0.89935524  0.86628543  0.56368374    -0.82300
O2069       O  0.97290282  0.88954167  0.98514562    -0.85000
C2070       C  0.92790695  0.95869998  0.57052649     0.95700
C2071       C  0.94384840  0.91124747  0.62722173     1.03200
O2072       O  0.94379182  0.89959092  0.54713143    -1.14000
O2073       O  0.98378271  0.86099171  0.54628032    -0.76400
O2074       O  0.99647857  0.89766061  0.56776669    -0.79900
O2075       O  0.91143015  0.94198445  0.57447076    -0.80600
C2076       C  0.99983851  0.87444684  0.56172710     0.94600
O2077       O  0.98297678  0.92696389  0.50781211    -0.78600
O2078       O  0.93340307  0.84515370  0.55094260    -0.83800
C2079       C  0.90084411  0.89171550  0.48986330     0.97300
C2080       C  0.91092450  0.84580196  0.56028383     1.03200
O2081       O  0.89553716  0.90646150  0.51522367    -0.79400
C2082       C  0.98482508  0.91008756  0.98421578     1.01500
Fe2083     Fe  0.97108737  0.06401709  0.69897569     1.65800
Fe2084     Fe  0.95094233  0.11025126  0.75340607     1.73200
Fe2085     Fe  0.91395970  0.09101089  0.68825584     1.54400
O2086       O  0.93463071  0.09887186  0.64348029    -0.83100
O2087       O  0.91545543  0.10497926  0.77250965    -0.81500
O2088       O  0.96208742  0.06759796  0.64797918    -0.85700
O2089       O  0.94610915  0.03476374  0.70144307    -0.80500
O2090       O  0.90956303  0.12933848  0.69634967    -0.82300
O2091       O  0.96148688  0.07922724  0.77992187    -0.85000
C2092       C  0.92839680  0.03387103  0.67946529     0.95700
C2093       C  0.95202313  0.08513538  0.63105207     1.03200
O2094       O  0.94525198  0.08855000  0.71374320    -1.14000
O2095       O  0.98679823  0.11812711  0.73740072    -0.76400
O2096       O  0.99716399  0.09230616  0.69391293    -0.79900
O2097       O  0.91421573  0.05278535  0.67410109    -0.80600
C2098       C  0.00146422  0.11111430  0.71341746     0.94600
O2099       O  0.98640960  0.05705521  0.74742217    -0.78600
O2100       O  0.94045275  0.14307557  0.72952534    -0.83800
C2101       C  0.89515467  0.09462101  0.76326557     0.97300
C2102       C  0.92149527  0.14706833  0.71087360     1.03200
O2103       O  0.89207092  0.08491640  0.73310963    -0.79400
C2104       C  0.98273174  0.07002058  0.77429505     1.01500
Fe2105     Fe  0.81539579  0.71674699  0.56710819     1.65800
Fe2106     Fe  0.86450993  0.70079988  0.61894302     1.73200
Fe2107     Fe  0.84928079  0.66386136  0.55110645     1.54400
O2108       O  0.81134855  0.65927516  0.53976738    -0.83100
O2109       O  0.89781158  0.69401275  0.59439558    -0.81500
O2110       O  0.79004434  0.68771308  0.57019134    -0.85700
O2111       O  0.81840255  0.70970223  0.51542893    -0.80500
O2112       O  0.84759832  0.63977894  0.59450804    -0.82300
O2113       O  0.86865173  0.73759773  0.60312251    -0.85000
C2114       C  0.83608837  0.70178728  0.99745141     0.95700
C2115       C  0.79095984  0.67035426  0.54749948     1.03200
O2116       O  0.84328024  0.69375744  0.57922892    -1.14000
O2117       O  0.83337393  0.70812582  0.64679552    -0.76400
O2118       O  0.80732459  0.72999357  0.61615471    -0.79900
O2119       O  0.85207371  0.68595275  0.00835037    -0.80600
C2120       C  0.82182738  0.72833748  0.64161844     0.94600
O2121       O  0.84023816  0.74644654  0.56223168    -0.78600
O2122       O  0.86242408  0.66445087  0.63686329    -0.83800
C2123       C  0.90384197  0.67902790  0.57043541     0.97300
C2124       C  0.85513699  0.64322224  0.62563949     1.03200
O2125       O  0.88789090  0.66560818  0.55468030    -0.79400
C2126       C  0.85953243  0.75197664  0.58005026     1.01500
Fe2127     Fe  0.68154610  0.72120029  0.93203567     1.65800
Fe2128     Fe  0.63272925  0.70432043  0.88066726     1.73200
Fe2129     Fe  0.65089576  0.66688859  0.94575259     1.54400
O2130       O  0.68795257  0.66530048  0.96043588    -0.83100
O2131       O  0.60006206  0.69624820  0.90711134    -0.81500
O2132       O  0.70902054  0.69350704  0.92988450    -0.85700
O2133       O  0.67746047  0.71295037  0.98334686    -0.80500
O2134       O  0.65755912  0.64482058  0.90228081    -0.82300
O2135       O  0.62821867  0.74181103  0.89463637    -0.85000
C2136       C  0.65831861  0.70462595  0.50107452     0.95700
C2137       C  0.70829643  0.67600065  0.95243242     1.03200
O2138       O  0.65495770  0.69755510  0.91912097    -1.14000
O2139       O  0.66302759  0.71239099  0.85129942    -0.76400
O2140       O  0.68851559  0.73505896  0.88265112    -0.79900
O2141       O  0.64306295  0.68838662  0.48923269    -0.80600
C2142       C  0.67495330  0.73247228  0.85609544     0.94600
O2143       O  0.65562621  0.74984424  0.93701919    -0.78600
O2144       O  0.63600170  0.66761647  0.86346953    -0.83800
C2145       C  0.59589239  0.67603498  0.92332987     0.97300
C2146       C  0.64754131  0.64769176  0.87255302     1.03200
O2147       O  0.61331908  0.66312112  0.93643066    -0.79400
C2148       C  0.63737045  0.75619683  0.91774606     1.01500
Fe2149     Fe  0.46081083  0.93368642  0.68931104     1.65800
Fe2150     Fe  0.44656575  0.88700577  0.74548254     1.73200
Fe2151     Fe  0.40451747  0.90438035  0.68560255     1.54400
O2152       O  0.40206709  0.94170157  0.67115612    -0.83100
O2153       O  0.43660451  0.85383178  0.72098385    -0.81500
O2154       O  0.43431941  0.96200370  0.69412125    -0.85700
O2155       O  0.44950841  0.92863409  0.63941019    -0.80500
O2156       O  0.38609316  0.91092044  0.73288404    -0.82300
O2157       O  0.48212188  0.88170752  0.72752673    -0.85000
C2158       C  0.43767710  0.91173934  0.62328841     0.95700
C2159       C  0.41467436  0.96160751  0.67556223     1.03200
O2160       O  0.43736582  0.90830717  0.70689035    -1.14000
O2161       O  0.45716306  0.91770168  0.77387927    -0.76400
O2162       O  0.47724475  0.94170080  0.73619814    -0.79900
O2163       O  0.42182957  0.89728454  0.63795654    -0.80600
C2164       C  0.47418061  0.93325274  0.76641533     0.94600
O2165       O  0.48877584  0.90712053  0.68244121    -0.78600
O2166       O  0.41219256  0.89023564  0.76799477    -0.83800
C2167       C  0.41591497  0.84901532  0.70659239     0.97300
C2168       C  0.39158385  0.90119504  0.76220482     1.03200
O2169       O  0.40184305  0.86623600  0.69502678    -0.79400
C2170       C  0.49544103  0.88941767  0.70261557     1.01500
Fe2171     Fe  0.45562995  0.07099577  0.56897607     1.65800
Fe2172     Fe  0.44283311  0.11916948  0.51469037     1.73200
Fe2173     Fe  0.39961488  0.10094063  0.57312714     1.54400
O2174       O  0.39643893  0.06293674  0.58484377    -0.83100
O2175       O  0.43284490  0.15177968  0.54046482    -0.81500
O2176       O  0.42890933  0.04374467  0.56065673    -0.85700
O2177       O  0.44342521  0.07391835  0.61851459    -0.80500
O2178       O  0.38137970  0.09708275  0.52513961    -0.82300
O2179       O  0.47824338  0.12337689  0.53423364    -0.85000
C2180       C  0.43138322  0.09005707  0.63566329     0.95700
C2181       C  0.40955118  0.04335425  0.57970475     1.03200
O2182       O  0.43273544  0.09717172  0.55218281    -1.14000
O2183       O  0.45451489  0.08770540  0.98436624    -0.76400
O2184       O  0.47274423  0.06426766  0.52281059    -0.79900
O2185       O  0.41618281  0.10557889  0.62176040    -0.80600
C2186       C  0.47121234  0.07201960  0.99276936     0.94600
O2187       O  0.48383675  0.09690447  0.57850622    -0.78600
O2188       O  0.40854808  0.11718072  0.49094801    -0.83800
C2189       C  0.41243162  0.15670248  0.55559447     0.97300
C2190       C  0.38728805  0.10739172  0.49634175     1.03200
O2191       O  0.39805998  0.13954831  0.56663395    -0.79400
C2192       C  0.49115058  0.11486026  0.55915163     1.01500
Fe2193     Fe  0.31457451  0.23159568  0.82117855     1.65800
Fe2194     Fe  0.36137688  0.21161876  0.87368094     1.73200
Fe2195     Fe  0.34063042  0.17435926  0.80932204     1.54400
O2196       O  0.30207553  0.17478198  0.79827828    -0.83100
O2197       O  0.39341825  0.20115850  0.84772324    -0.81500
O2198       O  0.28535729  0.20696292  0.82715516    -0.85700
O2199       O  0.31529837  0.22112183  0.77043555    -0.80500
O2200       O  0.33568876  0.15235445  0.85396208    -0.82300
O2201       O  0.36826582  0.24821858  0.85785453    -0.85000
C2202       C  0.33316053  0.21232071  0.75313290     0.95700
C2203       C  0.28342351  0.18885037  0.80564988     1.03200
O2204       O  0.33892512  0.20568486  0.83514753    -1.14000
O2205       O  0.33143422  0.22237656  0.90223141    -0.76400
O2206       O  0.31023312  0.24816851  0.86935967    -0.79900
O2207       O  0.34740496  0.19516628  0.76472255    -0.80600
C2208       C  0.32202571  0.24374087  0.89694768     0.94600
O2209       O  0.34331092  0.25674119  0.81283128    -0.78600
O2210       O  0.35664309  0.17565529  0.89265186    -0.83800
C2211       C  0.39704629  0.18292681  0.82724204     0.97300
C2212       C  0.34590959  0.15535332  0.88363815     1.03200
O2213       O  0.37905882  0.17047125  0.81431195    -0.79400
C2214       C  0.36148146  0.26216273  0.83278397     1.01500
Fe2215     Fe  0.16832777  0.22836305  0.68955541     1.65800
Fe2216     Fe  0.11398652  0.20823529  0.65498367     1.73200
Fe2217     Fe  0.14955508  0.16790002  0.70149548     1.54400
O2218       O  0.18758329  0.17057973  0.70934457    -0.83100
O2219       O  0.09059544  0.18966630  0.68821675    -0.81500
O2220       O  0.19928186  0.20567986  0.68432754    -0.85700
O2221       O  0.16690856  0.22015510  0.74109361    -0.80500
O2222       O  0.15227395  0.15302837  0.65157726    -0.82300
O2223       O  0.10441241  0.24089901  0.68087812    -0.85000
C2224       C  0.15682548  0.20407746  0.76106566     0.95700
C2225       C  0.20375098  0.18736079  0.70424884     1.03200
O2226       O  0.14411864  0.20164058  0.68168058    -1.14000
O2227       O  0.13223357  0.22970350  0.61884466    -0.76400
O2228       O  0.17037787  0.23883829  0.63825174    -0.79900
O2229       O  0.14630730  0.18371258  0.75082777    -0.80600
C2230       C  0.15294058  0.24106909  0.61610474     0.94600
O2231       O  0.14153050  0.25567519  0.69660748    -0.78600
O2232       O  0.12167224  0.17586844  0.62625676    -0.83800
C2233       C  0.09221041  0.16714615  0.69780516     0.97300
C2234       C  0.13732601  0.15761934  0.62636915     1.03200
O2235       O  0.11297099  0.15629282  0.70090663    -0.79400
C2236       C  0.11822263  0.25839063  0.69229598     1.01500
Fe2237     Fe  0.51416511  0.90696148  0.93405884     1.65800
Fe2238     Fe  0.54496799  0.86928980  0.98620272     1.73200
Fe2239     Fe  0.57722926  0.90568302  0.92942850     1.54400
O2240       O  0.56153601  0.91122606  0.87941451    -0.83100
O2241       O  0.56695074  0.89186807  0.51630647    -0.81500
O2242       O  0.52593199  0.89238366  0.88867965    -0.85700
O2243       O  0.52910282  0.94220489  0.92224662    -0.80500
O2244       O  0.58632211  0.86866670  0.91781583    -0.82300
O2245       O  0.51333093  0.88400875  0.50905206    -0.85000
C2246       C  0.54997345  0.95375876  0.92222196     0.95700
C2247       C  0.53927327  0.90625138  0.87019988     1.03200
O2248       O  0.54563254  0.89511360  0.95123201    -1.14000
O2249       O  0.52285674  0.84518626  0.95719821    -0.76400
O2250       O  0.49513017  0.87392432  0.94116778    -0.79900
O2251       O  0.56947497  0.94394556  0.93588909    -0.80600
C2252       C  0.50139360  0.85129868  0.94616627     0.94600
O2253       O  0.50161938  0.91882582  0.98179187    -0.78600
O2254       O  0.57635590  0.85107187  0.96810923    -0.83800
C2255       C  0.58929256  0.89784717  0.50908622     0.97300
C2256       C  0.58777524  0.85073130  0.93939990     1.03200
O2257       O  0.59627468  0.90227261  0.97834689    -0.79400
C2258       C  0.49939312  0.90327623  0.50636202     1.01500
Fe2259     Fe  0.51152599  0.08500154  0.81653335     1.65800
Fe2260     Fe  0.54126236  0.12661434  0.76866808     1.73200
Fe2261     Fe  0.57412549  0.09164572  0.82657867     1.54400
O2262       O  0.55704830  0.08533197  0.87490152    -0.83100
O2263       O  0.56608010  0.10636321  0.73942513    -0.81500
O2264       O  0.51869100  0.09855644  0.86412594    -0.85700
O2265       O  0.52858989  0.05103146  0.82870587    -0.80500
O2266       O  0.58090022  0.12914355  0.83891958    -0.82300
O2267       O  0.51198700  0.11013331  0.74323021    -0.85000
C2268       C  0.55022106  0.04109508  0.83010894     0.95700
C2269       C  0.53430303  0.08808565  0.88364307     1.03200
O2270       O  0.54261888  0.10031127  0.80307881    -1.14000
O2271       O  0.51525924  0.14821918  0.79633506    -0.76400
O2272       O  0.49002011  0.11639053  0.80852329    -0.79900
O2273       O  0.56957497  0.05286750  0.81944389    -0.80600
C2274       C  0.49377800  0.13963615  0.80411373     0.94600
O2275       O  0.50242614  0.07343441  0.76722697    -0.78600
O2276       O  0.57033664  0.14716291  0.78917461    -0.83800
C2277       C  0.58827873  0.10077123  0.74805462     0.97300
C2278       C  0.58190305  0.14737928  0.81773861     1.03200
O2279       O  0.59452477  0.09625278  0.77955009    -0.79400
C2280       C  0.49877361  0.09039860  0.74455111     1.01500
Fe2281     Fe  0.82991967  0.27588471  0.69148980     1.65800
Fe2282     Fe  0.88420187  0.29595549  0.65731249     1.73200
Fe2283     Fe  0.84785374  0.33693908  0.70326034     1.54400
O2284       O  0.80929752  0.33475561  0.70796083    -0.83100
O2285       O  0.90786597  0.31737845  0.68658306    -0.81500
O2286       O  0.79858468  0.29794495  0.68686646    -0.85700
O2287       O  0.83114289  0.28359982  0.74295096    -0.80500
O2288       O  0.84742116  0.35181925  0.65274065    -0.82300
O2289       O  0.89477277  0.26534397  0.68683134    -0.85000
C2290       C  0.83954156  0.30044047  0.76316244     0.95700
C2291       C  0.79385537  0.31691245  0.70551094     1.03200
O2292       O  0.85392291  0.30300247  0.68395772    -1.14000
O2293       O  0.86679852  0.27158285  0.62381116    -0.76400
O2294       O  0.82748229  0.26582039  0.64017805    -0.79900
O2295       O  0.84881174  0.32147686  0.75318253    -0.80600
C2296       C  0.84565786  0.26131980  0.62001348     0.94600
O2297       O  0.85739871  0.24908658  0.69788132    -0.78600
O2298       O  0.87514843  0.32622756  0.62583605    -0.83800
C2299       C  0.90566028  0.33867836  0.70045204     0.97300
C2300       C  0.86082313  0.34551881  0.62644400     1.03200
O2301       O  0.88460668  0.34828846  0.70667910    -0.79400
C2302       C  0.88098886  0.24717494  0.69611165     1.01500
Fe2303     Fe  0.68399948  0.27085666  0.82769916     1.65800
Fe2304     Fe  0.63534448  0.29121413  0.87740334     1.73200
Fe2305     Fe  0.65699806  0.32742371  0.81232058     1.54400
O2306       O  0.69525528  0.32757574  0.80044596    -0.83100
O2307       O  0.60401473  0.30028135  0.84906371    -0.81500
O2308       O  0.71290344  0.29641599  0.82993253    -0.85700
O2309       O  0.68158497  0.27831378  0.77622413    -0.80500
O2310       O  0.66190993  0.35004027  0.85601844    -0.82300
O2311       O  0.62889211  0.25396697  0.86379272    -0.85000
C2312       C  0.66434654  0.28788337  0.75840511     0.95700
C2313       C  0.71421745  0.31407089  0.80771687     1.03200
O2314       O  0.65881286  0.29655755  0.83955071    -1.14000
O2315       O  0.66445525  0.28140113  0.90811277    -0.76400
O2316       O  0.68983553  0.25793766  0.87749107    -0.79900
O2317       O  0.65064518  0.30584119  0.76883360    -0.80600
C2318       C  0.67551437  0.26076359  0.90317377     0.94600
O2319       O  0.65641757  0.24372440  0.82256402    -0.78600
O2320       O  0.63958078  0.32791422  0.89455929    -0.83800
C2321       C  0.60061577  0.31813826  0.82800405     0.97300
C2322       C  0.65110678  0.34776447  0.88534392     1.03200
O2323       O  0.61859799  0.33128496  0.81660801    -0.79400
C2324       C  0.63729711  0.23885655  0.84102932     1.01500
Fe2325     Fe  0.47434844  0.57684128  0.94583605     1.65800
Fe2326     Fe  0.45036159  0.62980151  0.98149848     1.73200
Fe2327     Fe  0.41278829  0.59137467  0.93531262     1.54400
O2328       O  0.42796103  0.59528727  0.88565692    -0.83100
O2329       O  0.41809773  0.62099100  0.50932684    -0.81500
O2330       O  0.46496863  0.57605525  0.89487882    -0.85700
O2331       O  0.45430358  0.54421381  0.95331764    -0.80500
O2332       O  0.39904266  0.62802090  0.93518750    -0.82300
O2333       O  0.47145214  0.61265198  0.51844584    -0.85000
C2334       C  0.43683888  0.53801794  0.93286556     0.95700
C2335       C  0.44840371  0.58526717  0.87508375     1.03200
O2336       O  0.44601241  0.59907913  0.95473309    -1.14000
O2337       O  0.48264135  0.64130182  0.95711329    -0.76400
O2338       O  0.49851161  0.60598742  0.93559393    -0.79900
O2339       O  0.41870908  0.55289052  0.92778375    -0.80600
C2340       C  0.49990758  0.62936306  0.94186124     0.94600
O2341       O  0.48679405  0.57693777  0.99637188    -0.78600
O2342       O  0.43165243  0.65163742  0.94675834    -0.83800
C2343       C  0.40136404  0.60422468  0.01020810     0.97300
C2344       C  0.40946471  0.64928373  0.93674224     1.03200
O2345       O  0.39808654  0.58819243  0.98566376    -0.79400
C2346       C  0.48579755  0.59370900  0.51994099     1.01500
Fe2347     Fe  0.48870148  0.41368780  0.81274809     1.65800
Fe2348     Fe  0.45818863  0.37477746  0.76151341     1.73200
Fe2349     Fe  0.42633020  0.40730963  0.82274670     1.54400
O2350       O  0.44398244  0.41156032  0.87140572    -0.83100
O2351       O  0.43335546  0.39633877  0.73432245    -0.81500
O2352       O  0.48123880  0.39692343  0.85827527    -0.85700
O2353       O  0.47199931  0.44727143  0.82981599    -0.80500
O2354       O  0.41966014  0.36963785  0.83234180    -0.82300
O2355       O  0.48746564  0.39236802  0.73733347    -0.85000
C2356       C  0.45013795  0.45679811  0.83170696     0.95700
C2357       C  0.46678694  0.40773640  0.87908115     1.03200
O2358       O  0.45739985  0.39953253  0.79796749    -1.14000
O2359       O  0.48382952  0.35179018  0.78734049    -0.76400
O2360       O  0.50996029  0.38260435  0.80079414    -0.79900
O2361       O  0.43143993  0.44590700  0.81766097    -0.80600
C2362       C  0.50546912  0.35955056  0.79569281     0.94600
O2363       O  0.49739768  0.42787115  0.76465110    -0.78600
O2364       O  0.42911463  0.35368431  0.78079671    -0.83800
C2365       C  0.41130565  0.40187318  0.74379751     0.97300
C2366       C  0.41818867  0.35233802  0.80979227     1.03200
O2367       O  0.40537244  0.40481323  0.77578921    -0.79400
C2368       C  0.50077278  0.41200098  0.74034339     1.01500
C2369       C  0.46304404  0.50508485  0.90287157    -0.14800
C2370       C  0.43935093  0.51537609  0.90970659     0.07300
C2371       C  0.41921513  0.50701852  0.88911236    -0.14800
C2372       C  0.42265174  0.48884028  0.86287740    -0.14800
C2373       C  0.44646693  0.47882951  0.85576987     0.07300
C2374       C  0.46655479  0.48733265  0.87633727    -0.14800
H2375       H  0.47917712  0.51141093  0.91729300     0.11300
H2376       H  0.40074781  0.51480816  0.89299190     0.11300
H2377       H  0.40658962  0.48249458  0.84833786     0.11300
H2378       H  0.48516833  0.47995281  0.87234739     0.11300
C2379       C  0.55359821  0.31640436  0.83450761    -0.14800
C2380       C  0.57496613  0.32439671  0.81628829     0.07300
C2381       C  0.57182058  0.33994177  0.78734298    -0.14800
C2382       C  0.54830835  0.34901359  0.77856747    -0.14800
C2383       C  0.52721871  0.34270541  0.79818374     0.07300
C2384       C  0.52982501  0.32563291  0.82558567    -0.14800
H2385       H  0.55542714  0.30429887  0.85685053     0.11300
H2386       H  0.58773678  0.34615938  0.77237485     0.11300
H2387       H  0.54691941  0.36261531  0.75793230     0.11300
H2388       H  0.51392517  0.32103402  0.84165483     0.11300
C2389       C  0.76520482  0.29402206  0.74557093    -0.14800
C2390       C  0.77191592  0.31669310  0.72935433     0.07300
C2391       C  0.76080172  0.33907873  0.74133119    -0.14800
C2392       C  0.74278577  0.33859872  0.76790635    -0.14800
C2393       C  0.73638674  0.31589413  0.78440652     0.07300
C2394       C  0.74800814  0.29367359  0.77293431    -0.14800
H2395       H  0.77396793  0.27653274  0.73789295     0.11300
H2396       H  0.76600937  0.35693804  0.73006353     0.11300
H2397       H  0.73375786  0.35597047  0.77549212     0.11300
H2398       H  0.74305954  0.27574910  0.78426319     0.11300
C2399       C  0.59710666  0.18127975  0.85773436    -0.14800
C2400       C  0.59740437  0.16962528  0.82521607     0.07300
C2401       C  0.61158338  0.18032673  0.79843943    -0.14800
C2402       C  0.62510324  0.20239249  0.80389208    -0.14800
C2403       C  0.62414665  0.21465959  0.83597790     0.07300
C2404       C  0.61010153  0.20383244  0.86294070    -0.14800
H2405       H  0.58615514  0.17344714  0.87864347     0.14500
H2406       H  0.61208505  0.17162935  0.77311058     0.11300
H2407       H  0.63572666  0.21024594  0.78267643     0.11300
H2408       H  0.60913064  0.21283385  0.88802230     0.11300
C2409       C  0.52929901  0.98548602  0.88376816    -0.14800
C2410       C  0.55124777  0.97718200  0.90031643     0.07300
C2411       C  0.57390128  0.98867575  0.89040249    -0.14800
C2412       C  0.57425091  0.00838429  0.86567251    -0.14800
C2413       C  0.55202507  0.01668251  0.84963501     0.07300
C2414       C  0.52973565  0.00439093  0.85875265    -0.14800
H2415       H  0.51142711  0.97709762  0.88976078     0.11300
H2416       H  0.59133249  0.98239819  0.90162024     0.11300
H2417       H  0.59175598  0.01761180  0.85994188     0.11300
H2418       H  0.51211980  0.01006807  0.84744477     0.11300
C2419       C  0.44400721  0.18474537  0.83613665    -0.14800
C2420       C  0.42299024  0.17527685  0.81833032     0.07300
C2421       C  0.42673628  0.15693588  0.79279981    -0.14800
C2422       C  0.45038522  0.14712801  0.78672823    -0.14800
C2423       C  0.47119032  0.15551660  0.80549040     0.07300
C2424       C  0.46801622  0.17488629  0.82974792    -0.14800
H2425       H  0.44174260  0.19888837  0.85602272     0.11300
H2426       H  0.41117611  0.14925293  0.77838084     0.11300
H2427       H  0.45215837  0.13173884  0.76868945     0.11300
H2428       H  0.48365951  0.18119474  0.84519555     0.11300
C2429       C  0.24986687  0.20996218  0.77132348    -0.14800
C2430       C  0.26124116  0.18751064  0.78243924     0.07300
C2431       C  0.25471530  0.16500758  0.76555020    -0.14800
C2432       C  0.23685241  0.16491617  0.73888599    -0.14800
C2433       C  0.22598737  0.18748749  0.72728029     0.07300
C2434       C  0.23275810  0.20998347  0.74388240    -0.14800
H2435       H  0.25491874  0.22774383  0.78299949     0.11300
H2436       H  0.26354019  0.14748496  0.77288970     0.11300
H2437       H  0.23145227  0.14718841  0.72735881     0.11300
H2438       H  0.22404166  0.22756857  0.73652857     0.11300
C2439       C  0.38831747  0.29707692  0.85471820    -0.14800
C2440       C  0.37531734  0.28571899  0.82720765     0.07300
C2441       C  0.37590305  0.29692845  0.79444151    -0.14800
C2442       C  0.38981035  0.31870703  0.78904583    -0.14800
C2443       C  0.40290773  0.32995349  0.81646463     0.07300
C2444       C  0.40178557  0.31921256  0.84946798    -0.14800
H2445       H  0.38800898  0.28888214  0.88033512     0.11300
H2446       H  0.36607068  0.28856619  0.77284756     0.11300
H2447       H  0.39028946  0.32684821  0.76338092     0.11300
H2448       H  0.41181436  0.32756138  0.87089354     0.11300
C2449       C  0.33800376  0.13744068  0.94225231    -0.14800
C2450       C  0.34788726  0.13443807  0.90876727     0.07300
C2451       C  0.36683725  0.11657573  0.90372222    -0.14800
C2452       C  0.37777268  0.10437574  0.93208174    -0.14800
C2453       C  0.36968215  0.10940673  0.96604783     0.07300
C2454       C  0.34859564  0.12477599  0.97061385    -0.14800
H2455       H  0.32387244  0.15161231  0.94701333     0.11300
H2456       H  0.37535217  0.11445541  0.87847666     0.11300
H2457       H  0.39433904  0.09308561  0.92781239     0.11300
H2458       H  0.34199930  0.13063491  0.49794580     0.11300
C2459       C  0.48543511  0.05759479  0.93563969    -0.14800
C2460       C  0.49109291  0.06697426  0.96827533     0.07300
C2461       C  0.51457908  0.07788211  0.97472348    -0.14800
C2462       C  0.53093516  0.08260067  0.94738353    -0.14800
C2463       C  0.52382874  0.07581996  0.91396562     0.07300
C2464       C  0.50203368  0.06156116  0.90868776    -0.14800
H2465       H  0.46737834  0.04929969  0.93041013     0.11300
H2466       H  0.51793122  0.08734892  0.49923381     0.11300
H2467       H  0.54755184  0.09370947  0.95175010     0.11300
H2468       H  0.49645067  0.05601342  0.88286018     0.11300
C2469       C  0.44501673  0.06853808  0.68891377    -0.14800
C2470       C  0.43859398  0.09123488  0.67208727     0.07300
C2471       C  0.44899796  0.11365808  0.68368615    -0.14800
C2472       C  0.46832189  0.11299467  0.70762060    -0.14800
C2473       C  0.47690358  0.08999112  0.72148070     0.07300
C2474       C  0.46399703  0.06792616  0.71367043    -0.14800
H2475       H  0.43753078  0.05084372  0.68001927     0.11300
H2476       H  0.44464624  0.13126579  0.67097190     0.11300
H2477       H  0.47725265  0.13061188  0.71419973     0.11300
H2478       H  0.46970965  0.05011652  0.72466926     0.11300
C2479       C  0.40945376  0.97753830  0.61604845    -0.14800
C2480       C  0.40918087  0.98256869  0.65181341     0.07300
C2481       C  0.40525979  0.00719470  0.66310882    -0.14800
C2482       C  0.40248011  0.02652447  0.63877916    -0.14800
C2483       C  0.40547302  0.02180256  0.60307359     0.07300
C2484       C  0.40865843  0.99704271  0.59187407    -0.14800
H2485       H  0.41151440  0.95845390  0.60686314     0.11300
H2486       H  0.40463520  0.01148138  0.69046843     0.11300
H2487       H  0.39975443  0.04553946  0.64802999     0.11300
H2488       H  0.41098281  0.99287334  0.56465594     0.11300
C2489       C  0.51837189  0.93277660  0.78451329    -0.14800
C2490       C  0.49321445  0.93797817  0.79272557     0.07300
C2491       C  0.48576286  0.93830318  0.82724985    -0.14800
C2492       C  0.50195069  0.92974231  0.85255769    -0.14800
C2493       C  0.52602035  0.92109658  0.84393626     0.07300
C2494       C  0.53484151  0.92428422  0.81019708    -0.14800
H2495       H  0.52438601  0.93211854  0.75777021     0.11300
H2496       H  0.46653000  0.94217581  0.83409712     0.11300
H2497       H  0.49481536  0.92792894  0.87864230     0.11300
H2498       H  0.55336208  0.91796015  0.80313032     0.11300
C2499       C  0.45288581  0.88526492  0.57529283    -0.14800
C2500       C  0.44507708  0.90883648  0.58694520     0.07300
C2501       C  0.45222042  0.93047032  0.56827495    -0.14800
C2502       C  0.46877700  0.92876781  0.54052262    -0.14800
C2503       C  0.47887003  0.90545457  0.53155495     0.07300
C2504       C  0.46989635  0.88361637  0.54806600    -0.14800
H2505       H  0.44810643  0.86843277  0.58955022     0.11300
H2506       H  0.44700672  0.94901403  0.57717356     0.11300
H2507       H  0.47513500  0.94578322  0.52798092     0.11300
H2508       H  0.47710627  0.86526087  0.54122156     0.11300
C2509       C  0.54923840  0.68032417  0.93122494    -0.14800
C2510       C  0.57052000  0.66550072  0.92536666     0.07300
C2511       C  0.56789991  0.63938911  0.92203806    -0.14800
C2512       C  0.54470902  0.62806611  0.92555137    -0.14800
C2513       C  0.52344442  0.64248359  0.93311274     0.07300
C2514       C  0.52582767  0.66882974  0.93554287    -0.14800
H2515       H  0.55087017  0.70053496  0.93375290     0.11300
H2516       H  0.58398586  0.62758689  0.91697031     0.11300
H2517       H  0.54369711  0.60777525  0.92365380     0.11300
H2518       H  0.50977052  0.68042392  0.94146684     0.11300
C2519       C  0.62744779  0.79344214  0.95440646    -0.14800
C2520       C  0.62633731  0.78142850  0.92218088     0.07300
C2521       C  0.61439157  0.79362991  0.89442358    -0.14800
C2522       C  0.60306970  0.81712624  0.89920308    -0.14800
C2523       C  0.60309065  0.82839311  0.93198856     0.07300
C2524       C  0.61571636  0.81656228  0.95933553    -0.14800
H2525       H  0.63660423  0.78453302  0.97615876     0.11300
H2526       H  0.61356948  0.78487259  0.86916565     0.11300
H2527       H  0.59330832  0.82586685  0.87784334     0.11300
H2528       H  0.61602406  0.82500325  0.98484316     0.11300
C2529       C  0.74492837  0.66746373  0.53555705    -0.14800
C2530       C  0.76956333  0.66700398  0.52366822     0.07300
C2531       C  0.77408379  0.66752146  0.98765777    -0.14800
C2532       C  0.75445838  0.67013624  0.96387097    -0.14800
C2533       C  0.72977730  0.67094749  0.97560246     0.07300
C2534       C  0.72516481  0.66879818  0.51195834    -0.14800
H2535       H  0.74100926  0.66741749  0.56302234     0.11300
H2536       H  0.79305936  0.66763699  0.97799852     0.11300
H2537       H  0.75855776  0.67189468  0.93657238     0.11300
H2538       H  0.70629926  0.66953352  0.52199751     0.11300
C2539       C  0.88669151  0.17670783  0.69953153    -0.14800
C2540       C  0.91199261  0.17303036  0.70716095     0.07300
C2541       C  0.92729847  0.19416472  0.71268728    -0.14800
C2542       C  0.91742447  0.21855251  0.70973527    -0.14800
C2543       C  0.89198228  0.22204635  0.70222685     0.07300
C2544       C  0.87679727  0.20081533  0.69740528    -0.14800
H2545       H  0.87434173  0.16085558  0.69559974     0.11300
H2546       H  0.94688034  0.19182345  0.71880357     0.11300
H2547       H  0.92959403  0.23458533  0.71327551     0.11300
H2548       H  0.85721349  0.20278339  0.69101901     0.11300
C2549       C  0.04750901  0.16457529  0.71516622    -0.14800
C2550       C  0.06930343  0.15266768  0.70359743     0.07300
C2551       C  0.06865716  0.12702588  0.69490278    -0.14800
C2552       C  0.04639811  0.11356628  0.69719596    -0.14800
C2553       C  0.02463615  0.12543710  0.70898568     0.07300
C2554       C  0.02540827  0.15097201  0.71827631    -0.14800
H2555       H  0.04760211  0.18435580  0.72182343     0.11300
H2556       H  0.08522476  0.11757040  0.68542765     0.11300
H2557       H  0.04627474  0.09383346  0.69027798     0.11300
H2558       H  0.00881513  0.16049477  0.72753486     0.11300
C2559       C  0.87179781  0.82038378  0.55978373    -0.14800
C2560       C  0.89758412  0.82203135  0.56617414     0.07300
C2561       C  0.91069835  0.80047244  0.57633856    -0.14800
C2562       C  0.89817991  0.77775846  0.58072589    -0.14800
C2563       C  0.87242060  0.77602401  0.57423584     0.07300
C2564       C  0.85934120  0.79745993  0.56343001    -0.14800
H2565       H  0.86137835  0.83672358  0.55134357     0.11300
H2566       H  0.93059735  0.80123612  0.58115451     0.11300
H2567       H  0.90872552  0.76142758  0.58890863     0.11300
H2568       H  0.83947742  0.79657954  0.55841513     0.11300
C2569       C  0.95008502  0.98875885  0.60973822    -0.14800
C2570       C  0.92755645  0.98031726  0.59516858     0.07300
C2571       C  0.90502251  0.98855294  0.61027531    -0.14800
C2572       C  0.90505480  0.00516183  0.63863831    -0.14800
C2573       C  0.92762113  0.01301850  0.65370138     0.07300
C2574       C  0.95010807  0.00458349  0.63880670    -0.14800
H2575       H  0.96777908  0.98222643  0.59958501     0.11300
H2576       H  0.88732925  0.98190684  0.60032078     0.11300
H2577       H  0.88744254  0.01184687  0.64887079     0.11300
H2578       H  0.96784993  0.01093586  0.64898265     0.11300
C2579       C  0.11330509  0.32900945  0.69603759    -0.14800
C2580       C  0.08793419  0.33286346  0.70322701     0.07300
C2581       C  0.07239668  0.31181790  0.70802496    -0.14800
C2582       C  0.08207762  0.28739018  0.70504163    -0.14800
C2583       C  0.10756282  0.28368177  0.69818274     0.07300
C2584       C  0.12302501  0.30476943  0.69386826    -0.14800
H2585       H  0.12581598  0.34478951  0.69259268     0.11300
H2586       H  0.05276417  0.31425544  0.71375694     0.11300
H2587       H  0.06971733  0.27146101  0.70815962     0.11300
H2588       H  0.14265468  0.30255102  0.68791953     0.11300
C2589       C  0.95083293  0.39311826  0.70588697    -0.14800
C2590       C  0.97357504  0.38049341  0.71062378     0.07300
C2591       C  0.97355173  0.35427706  0.71477416    -0.14800
C2592       C  0.95131084  0.34075312  0.71277206    -0.14800
C2593       C  0.92854882  0.35324078  0.70747222     0.07300
C2594       C  0.92842715  0.37961050  0.70473095    -0.14800
H2595       H  0.95039228  0.41339739  0.70344388     0.11300
H2596       H  0.99086511  0.34418456  0.71891082     0.11300
H2597       H  0.95193721  0.32045935  0.71491057     0.11300
H2598       H  0.91113930  0.38966887  0.70031639     0.11300
C2599       C  0.08814770  0.52047628  0.61041738    -0.14800
C2600       C  0.06494751  0.53220218  0.60415897     0.07300
C2601       C  0.04459612  0.52485307  0.62500490    -0.14800
C2602       C  0.04720403  0.50700541  0.65124343    -0.14800
C2603       C  0.07007074  0.49486524  0.65720401     0.07300
C2604       C  0.09053558  0.50162039  0.63610915    -0.14800
H2605       H  0.10439488  0.52584025  0.59552180     0.11300
H2606       H  0.02638112  0.53326275  0.62159884     0.11300
H2607       H  0.03079066  0.50196056  0.66604183     0.11300
H2608       H  0.10833735  0.49229909  0.63943828     0.11300
C2609       C  0.96183554  0.66395204  0.51885947    -0.14800
C2610       C  0.98047324  0.66530037  0.54423555     0.07300
C2611       C  0.97426951  0.67458402  0.57710325    -0.14800
C2612       C  0.94946900  0.68069074  0.58511193    -0.14800
C2613       C  0.93044919  0.67682009  0.56062756     0.07300
C2614       C  0.93702113  0.66940818  0.52701449    -0.14800
H2615       H  0.96604338  0.65660717  0.49358119     0.11300
H2616       H  0.98818211  0.67504366  0.59739455     0.11300
H2617       H  0.94492861  0.68655662  0.61119215     0.11300
H2618       H  0.92281952  0.66675220  0.50742261     0.11300
C2619       C  0.35923501  0.37635330  0.68974328    -0.14800
C2620       C  0.36764301  0.38280459  0.65645491     0.07300
C2621       C  0.38635272  0.40109872  0.65338549    -0.14800
C2622       C  0.39853318  0.41035202  0.68284562    -0.14800
C2623       C  0.39208577  0.40169233  0.71604754     0.07300
C2624       C  0.37113515  0.38598583  0.71934096    -0.14800
H2625       H  0.34535210  0.36174635  0.69284308     0.11300
H2626       H  0.39368315  0.40587314  0.62812947     0.11300
H2627       H  0.41478995  0.42217530  0.67942560     0.11300
H2628       H  0.36604983  0.37854484  0.74442504     0.11300
C2629       C  0.35329721  0.26483408  0.93411381    -0.14800
C2630       C  0.32951335  0.26504296  0.91884871     0.07300
C2631       C  0.31476642  0.28676819  0.92144844    -0.14800
C2632       C  0.32248491  0.30668842  0.94249567    -0.14800
C2633       C  0.34521311  0.30526054  0.96054522     0.07300
C2634       C  0.36130405  0.28504646  0.95410806    -0.14800
H2635       H  0.36554670  0.24876238  0.93122113     0.11300
H2636       H  0.29671725  0.28770531  0.90891199     0.11300
H2637       H  0.30944108  0.32176189  0.94795112     0.11300
H2638       H  0.37862102  0.28325121  0.96838782     0.11300
C2639       C  0.31822051  0.24829523  0.67377986    -0.14800
C2640       C  0.33908028  0.26415480  0.67208837     0.07300
C2641       C  0.35945436  0.25964461  0.69431355    -0.14800
C2642       C  0.35883094  0.24002081  0.71800160    -0.14800
C2643       C  0.33767367  0.22485949  0.72043338     0.07300
C2644       C  0.31742890  0.22896292  0.69807682    -0.14800
H2645       H  0.30250193  0.25092214  0.65657268     0.11300
H2646       H  0.37608297  0.27117555  0.69333597     0.11300
H2647       H  0.37408635  0.23787955  0.73615250     0.11300
H2648       H  0.30050968  0.21798289  0.70069839     0.11300
C2649       C  0.36982582  0.21313973  0.56106541    -0.14800
C2650       C  0.38662518  0.23324185  0.56426873     0.07300
C2651       C  0.41240705  0.22804017  0.56456256    -0.14800
C2652       C  0.42109195  0.20319621  0.56145344    -0.14800
C2653       C  0.40410373  0.18314326  0.55909270     0.07300
C2654       C  0.37843082  0.18845074  0.55886501    -0.14800
H2655       H  0.34986723  0.21641152  0.56118255     0.11300
H2656       H  0.42579426  0.24314109  0.56721012     0.11300
H2657       H  0.44099680  0.19961877  0.56152097     0.11300
H2658       H  0.36489643  0.17344218  0.55657630     0.11300
C2659       C  0.24563776  0.35695579  0.98867816    -0.14800
C2660       C  0.23712176  0.33390860  0.97510920     0.07300
C2661       C  0.24749773  0.31267334  0.48822969    -0.14800
C2662       C  0.26557857  0.31317767  0.51444868    -0.14800
C2663       C  0.27446768  0.33604039  0.52788046     0.07300
C2664       C  0.26480547  0.35759310  0.01381228    -0.14800
H2665       H  0.23760431  0.37444927  0.97966209     0.11300
H2666       H  0.24109252  0.29460474  0.47888715     0.11300
H2667       H  0.27336225  0.29552472  0.52333555     0.11300
H2668       H  0.27171253  0.37558700  0.02269398     0.11300
C2669       C  0.14414643  0.39064828  0.78147710    -0.14800
C2670       C  0.12486326  0.40801316  0.78766180     0.07300
C2671       C  0.11993458  0.41489893  0.82220190    -0.14800
C2672       C  0.13209661  0.40285792  0.84987398    -0.14800
C2673       C  0.14918876  0.38331445  0.84368130     0.07300
C2674       C  0.15597229  0.37826198  0.80915586    -0.14800
H2675       H  0.14777201  0.38421077  0.75537580     0.11300
H2676       H  0.10460675  0.42754731  0.82790204     0.11300
H2677       H  0.12575865  0.40658588  0.87597976     0.11300
H2678       H  0.16846401  0.36276584  0.80347425     0.11300
C2679       C  0.13667765  0.28442414  0.54164682    -0.14800
C2680       C  0.15946889  0.29649695  0.53582760     0.07300
C2681       C  0.18003770  0.29060091  0.55689207    -0.14800
C2682       C  0.17812988  0.27231675  0.58259337    -0.14800
C2683       C  0.15567255  0.25928106  0.58745586     0.07300
C2684       C  0.13479730  0.26592074  0.56715347    -0.14800
H2685       H  0.12101855  0.28537123  0.02283722     0.11300
H2686       H  0.19800669  0.29925073  0.55214915     0.11300
H2687       H  0.19437919  0.26808411  0.59820040     0.11300
H2688       H  0.11700776  0.25665874  0.57071290     0.11300
C2689       C  0.18748420  0.23290351  0.83416233    -0.14800
C2690       C  0.17071800  0.25289527  0.83873070     0.07300
C2691       C  0.14627232  0.25056672  0.82596257    -0.14800
C2692       C  0.13943546  0.22981094  0.80616152    -0.14800
C2693       C  0.15730041  0.21175001  0.79715969     0.07300
C2694       C  0.18086578  0.21251449  0.81316839    -0.14800
H2695       H  0.20617810  0.23389761  0.84470811     0.11300
H2696       H  0.13262771  0.26528480  0.83020301     0.11300
H2697       H  0.12134287  0.22988883  0.79363159     0.11300
H2698       H  0.19514908  0.19906641  0.80592279     0.11300
C2699       C  0.99161354  0.90070821  0.68891805    -0.14800
C2700       C  0.99290666  0.92490499  0.70341195     0.07300
C2701       C  0.97187292  0.94060031  0.70140791    -0.14800
C2702       C  0.95133861  0.93345622  0.68124340    -0.14800
C2703       C  0.95148548  0.91042074  0.66333037     0.07300
C2704       C  0.97072586  0.89324954  0.67005468    -0.14800
H2705       H  0.00715388  0.88776601  0.69115703     0.11300
H2706       H  0.97203358  0.95902126  0.71333009     0.11300
H2707       H  0.93696892  0.94727453  0.67588682     0.11300
H2708       H  0.97152739  0.87557964  0.65611938     0.11300
C2709       C  0.03106693  0.93818476  0.92124926    -0.14800
C2710       C  0.03841976  0.91670275  0.90253320     0.07300
C2711       C  0.02970999  0.89311421  0.91258378    -0.14800
C2712       C  0.01224555  0.89121999  0.93914364    -0.14800
C2713       C  0.00341702  0.91287980  0.95635262     0.07300
C2714       C  0.01384176  0.93626973  0.94821916    -0.14800
H2715       H  0.03733174  0.95665517  0.91332075     0.11300
H2716       H  0.03467627  0.87645340  0.89796488     0.11300
H2717       H  0.00521247  0.87275098  0.94564447     0.11300
H2718       H  0.00878676  0.95304790  0.46282560     0.11300
C2719       C  0.13505356  0.14078741  0.53259065    -0.14800
C2720       C  0.11859630  0.12026100  0.53319612     0.07300
C2721       C  0.11310500  0.10894364  0.56510019    -0.14800
C2722       C  0.12226669  0.11926850  0.59604148    -0.14800
C2723       C  0.13678012  0.14123874  0.59551803     0.07300
C2724       C  0.14393704  0.15127770  0.56346870    -0.14800
H2725       H  0.13880296  0.15043360  0.50846743     0.11300
H2726       H  0.09971419  0.09374902  0.56635084     0.11300
H2727       H  0.11578441  0.11171833  0.62045047     0.11300
H2728       H  0.15441587  0.16865082  0.56244014     0.11300
C2729       C  0.08694018  0.20831776  0.92674712    -0.14800
C2730       C  0.10037023  0.18577839  0.92996435     0.07300
C2731       C  0.12660702  0.18655419  0.93096481    -0.14800
C2732       C  0.13914108  0.20952564  0.92958473    -0.14800
C2733       C  0.12564320  0.23196683  0.92645704     0.07300
C2734       C  0.09950255  0.23119845  0.92456731    -0.14800
H2735       H  0.06672610  0.20825990  0.92604290     0.11300
H2736       H  0.13741080  0.16946679  0.93377034     0.11300
H2737       H  0.15935586  0.20974855  0.93029824     0.11300
H2738       H  0.08880976  0.24836241  0.92174771     0.11300
C2739       C  0.09439432  0.01897912  0.88391223    -0.14800
C2740       C  0.07231600  0.02715279  0.90034147     0.07300
C2741       C  0.04942645  0.01819604  0.88751378    -0.14800
C2742       C  0.04857713  0.00166163  0.85921114    -0.14800
C2743       C  0.07060514  0.99297631  0.84332636     0.07300
C2744       C  0.09357565  0.00161422  0.85636122    -0.14800
H2745       H  0.11231801  0.02602788  0.89241804     0.11300
H2746       H  0.03201714  0.02468586  0.89863228     0.11300
H2747       H  0.03058475  0.99486854  0.85056076     0.11300
H2748       H  0.11089650  0.99489047  0.84525375     0.11300
C2749       C  0.98838140  0.07058816  0.55142547    -0.14800
C2750       C  0.00048322  0.09358472  0.54591949     0.07300
C2751       C  0.99271369  0.11480755  0.56507469    -0.14800
C2752       C  0.97414771  0.11280787  0.59025561    -0.14800
C2753       C  0.96316102  0.08953109  0.59702259     0.07300
C2754       C  0.97001893  0.06855955  0.57689502    -0.14800
H2755       H  0.99343649  0.05407261  0.53658484     0.11300
H2756       H  0.00112549  0.13303798  0.56085079     0.11300
H2757       H  0.96976599  0.12899224  0.60618200     0.11300
H2758       H  0.96216379  0.05023027  0.58236221     0.11300
C2759       C  0.04567376  0.07282734  0.81865411    -0.14800
C2760       C  0.04353298  0.09569213  0.83666345     0.07300
C2761       C  0.02316496  0.11141540  0.82985761    -0.14800
C2762       C  0.00335162  0.10272035  0.80995582    -0.14800
C2763       C  0.00419915  0.07870970  0.79483864     0.07300
C2764       C  0.02618661  0.06448190  0.79746091    -0.14800
H2765       H  0.06093681  0.06009086  0.82430234     0.11300
H2766       H  0.02086917  0.12884561  0.84405541     0.11300
H2767       H  0.98697668  0.11452627  0.80733422     0.11300
H2768       H  0.02757139  0.04623739  0.78516320     0.11300
C2769       C  0.56088470  0.12128438  0.57027662    -0.14800
C2770       C  0.56442480  0.14673263  0.56167232     0.07300
C2771       C  0.54352607  0.16179147  0.55473544    -0.14800
C2772       C  0.51961929  0.15152664  0.55548871    -0.14800
C2773       C  0.51602346  0.12610010  0.56387133     0.07300
C2774       C  0.53681801  0.11108903  0.57164120    -0.14800
H2775       H  0.57667616  0.10938392  0.57639228     0.11300
H2776       H  0.54567871  0.18151247  0.54843150     0.11300
H2777       H  0.50387212  0.16342141  0.54909086     0.11300
H2778       H  0.53452693  0.09131447  0.57749533     0.11300
C2779       C  0.63761848  0.21656146  0.95817502    -0.14800
C2780       C  0.65453916  0.19689256  0.96358602     0.07300
C2781       C  0.67700583  0.19652872  0.94485645    -0.14800
C2782       C  0.68386919  0.21721683  0.92478014    -0.14800
C2783       C  0.66846102  0.23854319  0.92359175     0.07300
C2784       C  0.64475642  0.23754281  0.93908477    -0.14800
H2785       H  0.62038019  0.21743350  0.97286892     0.11300
H2786       H  0.69056741  0.18181963  0.94934278     0.11300
H2787       H  0.70188490  0.21715501  0.91197509     0.11300
H2788       H  0.63200066  0.25324492  0.93725054     0.11300
C2789       C  0.67811065  0.25787591  0.67431766    -0.14800
C2790       C  0.66104648  0.23789086  0.67538869     0.07300
C2791       C  0.64353131  0.23666858  0.70242948    -0.14800
C2792       C  0.64266258  0.25535463  0.72735492    -0.14800
C2793       C  0.65964130  0.27519851  0.72621434     0.07300
C2794       C  0.67759641  0.27629659  0.69995070    -0.14800
H2795       H  0.69150272  0.25950299  0.65345902     0.11300
H2796       H  0.63012808  0.22148884  0.70400364     0.11300
H2797       H  0.62971228  0.25352976  0.74875642     0.11300
H2798       H  0.69169803  0.29086774  0.70007846     0.11300
C2799       C  0.60200328  0.09379471  0.68703840    -0.14800
C2800       C  0.60730422  0.10308310  0.72031598     0.07300
C2801       C  0.62615450  0.12125759  0.72383874    -0.14800
C2802       C  0.63724878  0.13203303  0.69443950    -0.14800
C2803       C  0.63035893  0.12420728  0.66103836     0.07300
C2804       C  0.61356375  0.10411481  0.65773087    -0.14800
H2805       H  0.58714698  0.08025313  0.68345537     0.11300
H2806       H  0.63010481  0.12930822  0.74897599     0.11300
H2807       H  0.64949662  0.14804601  0.69769474     0.11300
H2808       H  0.60731337  0.09827982  0.63233269     0.11300
C2809       C  0.94321629  0.17438586  0.93012882    -0.14800
C2810       C  0.92303574  0.15771301  0.93402471     0.07300
C2811       C  0.92787014  0.13241701  0.94164467    -0.14800
C2812       C  0.95232592  0.12377755  0.94442878    -0.14800
C2813       C  0.97255586  0.14029473  0.94021005     0.07300
C2814       C  0.96780611  0.16579356  0.93362358    -0.14800
H2815       H  0.93997594  0.19403637  0.92438994     0.11300
H2816       H  0.91273754  0.11912180  0.94467424     0.11300
H2817       H  0.95538400  0.10411785  0.95032450     0.11300
H2818       H  0.98305954  0.17896240  0.93074954     0.11300
C2819       C  0.86642953  0.10088704  0.85113207    -0.14800
C2820       C  0.84924043  0.12034883  0.84499493     0.07300
C2821       C  0.84274730  0.12559849  0.81043057    -0.14800
C2822       C  0.85504569  0.11363442  0.78275344    -0.14800
C2823       C  0.87453868  0.09654333  0.78899269     0.07300
C2824       C  0.87912186  0.08932675  0.82347453    -0.14800
H2825       H  0.87249646  0.09695839  0.87729132     0.11300
H2826       H  0.83015203  0.14100339  0.80479449     0.11300
H2827       H  0.85159925  0.12024581  0.75670588     0.11300
H2828       H  0.89450804  0.07678085  0.82923138     0.11300
C2829       C  0.81763503  0.21393183  0.55829793    -0.14800
C2830       C  0.83873911  0.20620719  0.53940958     0.07300
C2831       C  0.86229144  0.21511125  0.54895361    -0.14800
C2832       C  0.86444470  0.23305086  0.57519183    -0.14800
C2833       C  0.84307412  0.24224141  0.59242724     0.07300
C2834       C  0.81977791  0.23170196  0.58467145    -0.14800
H2835       H  0.79919068  0.20752194  0.55090018     0.11300
H2836       H  0.87869875  0.20986533  0.53423068     0.11300
H2837       H  0.88283388  0.24021844  0.58131393     0.11300
H2838       H  0.80309707  0.23785595  0.59805071     0.11300
C2839       C  0.80955845  0.27087286  0.83673566    -0.14800
C2840       C  0.82696869  0.25144834  0.84143805     0.07300
C2841       C  0.85125246  0.25444157  0.82839529    -0.14800
C2842       C  0.85738300  0.27524740  0.80833546    -0.14800
C2843       C  0.83899452  0.29273397  0.79926875     0.07300
C2844       C  0.81544696  0.29126988  0.81530091    -0.14800
H2845       H  0.79096321  0.26939404  0.84753242     0.11300
H2846       H  0.86536669  0.24020709  0.83271130     0.11300
H2847       H  0.87545503  0.27563259  0.79572609     0.11300
H2848       H  0.80075587  0.30422660  0.80801355     0.11300
C2849       C  0.75369285  0.19194968  0.99554007    -0.14800
C2850       C  0.76249170  0.17006991  0.97912633     0.07300
C2851       C  0.75259069  0.14688905  0.48932486    -0.14800
C2852       C  0.73376377  0.14559273  0.51485039    -0.14800
C2853       C  0.72528209  0.16746835  0.53186545     0.07300
C2854       C  0.73580467  0.19076154  0.02194040    -0.14800
H2855       H  0.76125588  0.21020483  0.98856516     0.11300
H2856       H  0.75931658  0.12974926  0.47747713     0.11300
H2857       H  0.72574092  0.12746562  0.52121844     0.11300
H2858       H  0.72926442  0.20810955  0.03335565     0.11300
C2859       C  0.65043563  0.37981898  0.97125202    -0.14800
C2860       C  0.63044605  0.39650023  0.96629049     0.07300
C2861       C  0.62258735  0.40162479  0.93231337    -0.14800
C2862       C  0.63245874  0.38811227  0.90431467    -0.14800
C2863       C  0.65003918  0.36898629  0.90996156     0.07300
C2864       C  0.65991890  0.36590041  0.94334733    -0.14800
H2865       H  0.65630170  0.37495215  0.99719522     0.11300
H2866       H  0.60672523  0.41386572  0.92790225     0.11300
H2867       H  0.62406490  0.39038140  0.87903443     0.11300
H2868       H  0.67304252  0.35084563  0.94846184     0.11300
C2869       C  0.51768547  0.43702282  0.93026326    -0.14800
C2870       C  0.50943470  0.43293583  0.96391811     0.07300
C2871       C  0.48454200  0.42556166  0.96993623    -0.14800
C2872       C  0.46912375  0.41900078  0.94212484    -0.14800
C2873       C  0.47875378  0.42000417  0.90857761     0.07300
C2874       C  0.50237589  0.43075531  0.90277600    -0.14800
H2875       H  0.53676558  0.44267716  0.92525915     0.11300
H2876       H  0.47847399  0.42104983  0.49614576     0.11300
H2877       H  0.45084992  0.41108321  0.94695291     0.11300
H2878       H  0.50983857  0.43243812  0.87684090     0.11300
C2879       C  0.55503039  0.43568522  0.68685233    -0.14800
C2880       C  0.56173785  0.41342198  0.66921362     0.07300
C2881       C  0.55123073  0.39068019  0.67932024    -0.14800
C2882       C  0.53150497  0.39066827  0.70257807    -0.14800
C2883       C  0.52270738  0.41325281  0.71745608     0.07300
C2884       C  0.53561665  0.43559125  0.71105661    -0.14800
H2885       H  0.56283969  0.45355135  0.67895447     0.11300
H2886       H  0.55578598  0.37343384  0.66576336     0.11300
H2887       H  0.52244589  0.37288526  0.70777831     0.11300
H2888       H  0.52967624  0.45307707  0.72284208     0.11300
C2889       C  0.58198267  0.30347477  0.56239106    -0.14800
C2890       C  0.59921380  0.32325819  0.55885739     0.07300
C2891       C  0.62475320  0.31735199  0.55726660    -0.14800
C2892       C  0.63288199  0.29232406  0.55928556    -0.14800
C2893       C  0.61571883  0.27252070  0.56359874     0.07300
C2894       C  0.59014506  0.27846051  0.56515672    -0.14800
H2895       H  0.56216712  0.30738848  0.56347585     0.11300
H2896       H  0.63847436  0.33209410  0.55397652     0.11300
H2897       H  0.65272628  0.28855533  0.55830887     0.11300
H2898       H  0.57641207  0.26376411  0.56866759     0.11300
C2899       C  0.46382689  0.39179043  0.56987689    -0.14800
C2900       C  0.48432807  0.37631027  0.56221522     0.07300
C2901       C  0.48027814  0.35104869  0.55345313    -0.14800
C2902       C  0.45613177  0.34135504  0.55251529    -0.14800
C2903       C  0.43553558  0.35689936  0.55947559     0.07300
C2904       C  0.43956238  0.38221639  0.56817520    -0.14800
H2905       H  0.46652213  0.41148125  0.57597500     0.11300
H2906       H  0.49615257  0.33868702  0.04946485     0.11300
H2907       H  0.45397594  0.32136553  0.04807191     0.11300
H2908       H  0.42400930  0.39443353  0.57433377     0.11300
C2909       C  0.62066588  0.59457386  0.82390500    -0.14800
C2910       C  0.62666689  0.60209087  0.79007093     0.07300
C2911       C  0.64595075  0.61949721  0.78513864    -0.14800
C2912       C  0.65607874  0.63220388  0.81352552    -0.14800
C2913       C  0.64745252  0.62716677  0.84711216     0.07300
C2914       C  0.63115679  0.60694780  0.85234714    -0.14800
H2915       H  0.60542655  0.58159412  0.82826762     0.11300
H2916       H  0.65041652  0.62605117  0.75935845     0.11300
H2917       H  0.66827883  0.64807535  0.80891532     0.11300
H2918       H  0.62382918  0.60314533  0.87791674     0.11300
C2919       C  0.49086977  0.60245447  0.80782309    -0.14800
C2920       C  0.49829743  0.57831190  0.79714520     0.07300
C2921       C  0.48261131  0.55784230  0.80384530    -0.14800
C2922       C  0.46156088  0.56107949  0.82483319    -0.14800
C2923       C  0.45586367  0.58485210  0.83889963     0.07300
C2924       C  0.46949293  0.60576109  0.82787524    -0.14800
H2925       H  0.50210129  0.61874469  0.80165860     0.11300
H2926       H  0.48751068  0.53919216  0.79483027     0.11300
H2927       H  0.45164695  0.54455514  0.83369566     0.11300
H2928       H  0.46578665  0.62415208  0.83883996     0.11300
C2929       C  0.52096518  0.57293480  0.55152515    -0.14800
C2930       C  0.50434330  0.59318041  0.54810169     0.07300
C2931       C  0.50772299  0.61463695  0.56900450    -0.14800
C2932       C  0.52654446  0.61533376  0.59383828    -0.14800
C2933       C  0.54213699  0.59453765  0.59844097     0.07300
C2934       C  0.53959100  0.57355733  0.57668021    -0.14800
H2935       H  0.51924420  0.55641089  0.53534069     0.11300
H2936       H  0.49563994  0.63086475  0.56650264     0.11300
H2937       H  0.52756232  0.63122311  0.61132989     0.11300
H2938       H  0.55093729  0.55695007  0.58082836     0.11300
C2939       C  0.56120350  0.49113128  0.61590873    -0.14800
C2940       C  0.58442553  0.48442205  0.60162841     0.07300
C2941       C  0.60618119  0.49466252  0.61622206    -0.14800
C2942       C  0.60456356  0.51197340  0.64367230    -0.14800
C2943       C  0.58127077  0.51821218  0.65829140     0.07300
C2944       C  0.55968409  0.50740345  0.64419175    -0.14800
H2945       H  0.54410910  0.48305284  0.60593371     0.11300
H2946       H  0.62433976  0.48940228  0.60625322     0.11300
H2947       H  0.62145775  0.52062773  0.65335782     0.11300
H2948       H  0.54142109  0.51246574  0.65402715     0.11300
C2949       C  0.85776878  0.61183006  0.71216058    -0.14800
C2950       C  0.87906790  0.59677099  0.70778644     0.07300
C2951       C  0.88750576  0.59207393  0.67386081    -0.14800
C2952       C  0.87674172  0.60443544  0.64544538    -0.14800
C2953       C  0.85759478  0.62208456  0.65045895     0.07300
C2954       C  0.84730081  0.62457208  0.68381396    -0.14800
H2955       H  0.85132758  0.61645574  0.73794814     0.11300
H2956       H  0.90433920  0.58115799  0.66977538     0.11300
H2957       H  0.88553377  0.60265031  0.62033437     0.11300
H2958       H  0.83292414  0.63848807  0.68857128     0.11300
C2959       C  0.00606540  0.58061484  0.64270807    -0.14800
C2960       C  0.03029203  0.58876133  0.65120882     0.07300
C2961       C  0.04045285  0.58228093  0.68331137    -0.14800
C2962       C  0.02511384  0.57108859  0.70831049    -0.14800
C2963       C  0.99977306  0.56631396  0.70095270     0.07300
C2964       C  0.99110607  0.56912069  0.66716150    -0.14800
H2965       H  0.99811007  0.58425699  0.61745726     0.11300
H2966       H  0.05932988  0.58767535  0.68993708     0.11300
H2967       H  0.03216248  0.56912759  0.73441497     0.11300
H2968       H  0.97176459  0.56536151  0.66083825     0.11300
C2969       C  0.97595640  0.61095136  0.94823943    -0.14800
C2970       C  0.98670799  0.58955469  0.96375499     0.07300
C2971       C  0.97755369  0.56573946  0.95523313    -0.14800
C2972       C  0.96016387  0.56339177  0.92839609    -0.14800
C2973       C  0.95149555  0.58487067  0.91058902     0.07300
C2974       C  0.95812288  0.60865813  0.92240356    -0.14800
H2975       H  0.98254224  0.62958225  0.95448291     0.11300
H2976       H  0.98520323  0.54904072  0.96723091     0.11300
H2977       H  0.95538919  0.54476394  0.91920503     0.11300
H2978       H  0.95211861  0.62536617  0.90869885     0.11300
C2979       C  0.88225999  0.39496279  0.56380279    -0.14800
C2980       C  0.87976627  0.38189479  0.53238882     0.07300
C2981       C  0.86592283  0.35950645  0.53197630    -0.14800
C2982       C  0.85683699  0.34911870  0.56273430    -0.14800
C2983       C  0.86116081  0.36101180  0.59461394     0.07300
C2984       C  0.87283517  0.38467613  0.59470141    -0.14800
H2985       H  0.89358356  0.41177342  0.56499546     0.11300
H2986       H  0.86442285  0.34866334  0.50831998     0.11300
H2987       H  0.84848709  0.33059905  0.56201306     0.11300
H2988       H  0.87710414  0.39385126  0.61900803     0.11300
C2989       C  0.00981445  0.43428345  0.55229750    -0.14800
C2990       C  0.99767796  0.41121308  0.54736643     0.07300
C2991       C  0.00514504  0.39032960  0.56729697    -0.14800
C2992       C  0.02373844  0.39269399  0.59235451    -0.14800
C2993       C  0.03501011  0.41599968  0.59813968     0.07300
C2994       C  0.02819111  0.43666931  0.57759272    -0.14800
H2995       H  0.00449384  0.45068697  0.03611642     0.11300
H2996       H  0.99658562  0.37209590  0.56362942     0.11300
H2997       H  0.02805620  0.37679215  0.60879159     0.11300
H2998       H  0.03621081  0.45503170  0.58244518     0.11300
C2999       C  0.95346924  0.43134687  0.81748280    -0.14800
C3000       C  0.95543208  0.40884183  0.83628018     0.07300
C3001       C  0.97633279  0.39343812  0.83115902    -0.14800
C3002       C  0.99658038  0.40212372  0.81210141    -0.14800
C3003       C  0.99574051  0.42578494  0.79609550     0.07300
C3004       C  0.97343684  0.43966391  0.79714477    -0.14800
H3005       H  0.93780581  0.44386976  0.82180416     0.11300
H3006       H  0.97854662  0.37633271  0.84606290     0.11300
H3007       H  0.01316803  0.39050738  0.81059778     0.11300
H3008       H  0.97201966  0.45758587  0.78404206     0.11300
C3009       C  0.86158412  0.29349957  0.93439683    -0.14800
C3010       C  0.87497547  0.27136757  0.92789821     0.07300
C3011       C  0.90080904  0.27265575  0.92190792    -0.14800
C3012       C  0.91316791  0.29572129  0.92314243    -0.14800
C3013       C  0.89974390  0.31792445  0.92940261     0.07300
C3014       C  0.87382194  0.31662564  0.93476696    -0.14800
H3015       H  0.84158388  0.29295878  0.93842545     0.11300
H3016       H  0.91144790  0.25576861  0.91653383     0.11300
H3017       H  0.93317618  0.29621227  0.91920084     0.11300
H3018       H  0.86308527  0.33344512  0.94013357     0.11300
C3019       C  0.94861905  0.48243379  0.88488289    -0.14800
C3020       C  0.92658045  0.47735430  0.90337813     0.07300
C3021       C  0.90445930  0.48933347  0.89283163    -0.14800
C3022       C  0.90457689  0.50657215  0.86523430    -0.14800
C3023       C  0.92658829  0.51140171  0.84637540     0.07300
C3024       C  0.94856989  0.49891467  0.85655585    -0.14800
H3025       H  0.96581417  0.47287044  0.89152119     0.11300
H3026       H  0.88705255  0.48527379  0.90589658     0.11300
H3027       H  0.88741517  0.51622682  0.85871212     0.11300
H3028       H  0.96601662  0.50251588  0.84333657     0.11300
C3029       C  0.04630779  0.38067371  0.93286353    -0.14800
C3030       C  0.02612347  0.36390226  0.93524952     0.07300
C3031       C  0.03089464  0.33791631  0.93409448    -0.14800
C3032       C  0.05540464  0.32897418  0.93078266    -0.14800
C3033       C  0.07555254  0.34586511  0.92952843     0.07300
C3034       C  0.07072200  0.37175854  0.93039915    -0.14800
H3035       H  0.04333125  0.40079634  0.93393390     0.11300
H3036       H  0.01532041  0.32524964  0.43003386     0.11300
H3037       H  0.05820532  0.30947973  0.42370808     0.11300
H3038       H  0.08586409  0.38517946  0.92878549     0.11300
C3039       C  0.04756644  0.66516708  0.79758879    -0.14800
C3040       C  0.07040319  0.65223916  0.79948851     0.07300
C3041       C  0.07028934  0.62581586  0.80106457    -0.14800
C3042       C  0.04772009  0.61264106  0.80111820    -0.14800
C3043       C  0.02503358  0.62568565  0.79903843     0.07300
C3044       C  0.02511680  0.65198852  0.79699196    -0.14800
H3045       H  0.04702865  0.68551317  0.79662245     0.11300
H3046       H  0.08758982  0.61537488  0.80295065     0.11300
H3047       H  0.04797778  0.59228237  0.80188488     0.11300
H3048       H  0.00775030  0.66232390  0.79494489     0.11300
C3049       C  0.14102083  0.64954954  0.93826916    -0.14800
C3050       C  0.13716492  0.63974083  0.90492325     0.07300
C3051       C  0.12492464  0.61653228  0.90164498    -0.14800
C3052       C  0.11442317  0.60476689  0.93073456    -0.14800
C3053       C  0.11651942  0.61566045  0.96378426     0.07300
C3054       C  0.13121865  0.63737202  0.96747093    -0.14800
H3055       H  0.14976557  0.66774816  0.94144695     0.11300
H3056       H  0.12106817  0.60893002  0.87620637     0.11300
H3057       H  0.10269420  0.58843436  0.92697353     0.11300
H3058       H  0.13252073  0.64665105  0.99235898     0.11300
C3059       C  0.08302516  0.78662472  0.79784456    -0.14800
C3060       C  0.10895704  0.78287701  0.80039568     0.07300
C3061       C  0.12471048  0.80401704  0.79939075    -0.14800
C3062       C  0.11487971  0.82825763  0.79674660    -0.14800
C3063       C  0.08904149  0.83206170  0.79427600     0.07300
C3064       C  0.07318259  0.81098358  0.79430950    -0.14800
H3065       H  0.07038476  0.77077485  0.79872701     0.11300
H3066       H  0.14474500  0.80191810  0.80163918     0.11300
H3067       H  0.12758448  0.84407568  0.79619084     0.11300
H3068       H  0.05317384  0.81338584  0.79218044     0.11300
C3069       C  0.38519872  0.60900785  0.60396066    -0.14800
C3070       C  0.36451526  0.62529551  0.60307730     0.07300
C3071       C  0.35278598  0.62952743  0.57107080    -0.14800
C3072       C  0.36275818  0.61932686  0.54036119    -0.14800
C3073       C  0.38474285  0.60482572  0.54101817     0.07300
C3074       C  0.39520369  0.59893928  0.57334278    -0.14800
H3075       H  0.39519122  0.60614195  0.62799231     0.11300
H3076       H  0.33746569  0.64276268  0.56935436     0.11300
H3077       H  0.35486971  0.62504277  0.51580647     0.11300
H3078       H  0.41263713  0.58865004  0.57462380     0.11300
C3079       C  0.43150778  0.62275986  0.70133143    -0.14800
C3080       C  0.42848122  0.64850341  0.70825789     0.07300
C3081       C  0.44939443  0.66305777  0.71681036    -0.14800
C3082       C  0.47299205  0.65212330  0.71815775    -0.14800
C3083       C  0.47615884  0.62654867  0.71029061     0.07300
C3084       C  0.45523174  0.61189916  0.70205786    -0.14800
H3085       H  0.41567659  0.61124005  0.69422821     0.11300
H3086       H  0.44752733  0.68298359  0.72208590     0.11300
H3087       H  0.48882817  0.66374196  0.72494368     0.11300
H3088       H  0.45717917  0.59201037  0.69660369     0.11300
C3089       C  0.26151276  0.65870999  0.74604068    -0.14800
C3090       C  0.26834027  0.67888997  0.72433144     0.07300
C3091       C  0.25523678  0.70170122  0.72815044    -0.14800
C3092       C  0.23632569  0.70435702  0.75317502    -0.14800
C3093       C  0.22955514  0.68419707  0.77479725     0.07300
C3094       C  0.24207803  0.66117556  0.77038264    -0.14800
H3095       H  0.27139132  0.64097845  0.74442731     0.11300
H3096       H  0.26013986  0.71782895  0.71253419     0.11300
H3097       H  0.22637505  0.72205676  0.75487319     0.11300
H3098       H  0.23683208  0.64507195  0.78583612     0.11300
C3099       C  0.37153040  0.79409532  0.70446081    -0.14800
C3100       C  0.38746907  0.77349827  0.69905203     0.07300
C3101       C  0.41337913  0.77776168  0.69705348    -0.14800
C3102       C  0.42301988  0.80222826  0.70028353    -0.14800
C3103       C  0.40680441  0.82280919  0.70442714     0.07300
C3104       C  0.38103680  0.81839588  0.70673547    -0.14800
H3105       H  0.35150048  0.79156555  0.70573349     0.11300
H3106       H  0.42610863  0.76224682  0.69271824     0.11300
H3107       H  0.44297531  0.80514524  0.69855962     0.11300
H3108       H  0.36811477  0.83385546  0.71039859     0.11300
C3109       C  0.05204640  0.82728751  0.57678715    -0.14800
C3110       C  0.07291260  0.84326025  0.57655279     0.07300
C3111       C  0.06920296  0.86934026  0.57484974    -0.14800
C3112       C  0.04526343  0.87930906  0.57223195    -0.14800
C3113       C  0.02438691  0.86343736  0.57049139     0.07300
C3114       C  0.02792752  0.83730077  0.57323912    -0.14800
H3115       H  0.05444841  0.80711493  0.57852714     0.11300
H3116       H  0.08491667  0.88212591  0.57540217     0.11300
H3117       H  0.04323554  0.89950054  0.56997848     0.11300
H3118       H  0.01214089  0.82465176  0.57199016     0.11300
C3119       C  0.15455651  0.87710909  0.69034076    -0.14800
C3120       C  0.14773031  0.88140302  0.65573651     0.07300
C3121       C  0.13134827  0.90130973  0.64841502    -0.14800
C3122       C  0.11934441  0.91421364  0.67539974    -0.14800
C3123       C  0.12394280  0.90781614  0.71012189     0.07300
C3124       C  0.14301370  0.89045534  0.71729622    -0.14800
H3125       H  0.16672981  0.86150862  0.69672276     0.11300
H3126       H  0.12525019  0.90457631  0.62210241     0.11300
H3127       H  0.10425553  0.92699333  0.66910233     0.11300
H3128       H  0.14642593  0.88459087  0.74368451     0.11300
C3129       C  0.18091319  0.71030482  0.68583265    -0.14800
C3130       C  0.15784369  0.70998324  0.70318193     0.07300
C3131       C  0.14024608  0.72867465  0.69580128    -0.14800
C3132       C  0.14708127  0.74955931  0.67638407    -0.14800
C3133       C  0.17107609  0.75127395  0.66196789     0.07300
C3134       C  0.18741028  0.73076548  0.66496169    -0.14800
H3135       H  0.19502671  0.69638566  0.69186990     0.11300
H3136       H  0.12254730  0.72907345  0.70938773     0.11300
H3137       H  0.13369845  0.76465695  0.67326409     0.11300
H3138       H  0.20570473  0.73131048  0.65307439     0.11300
C3139       C  0.17982986  0.78929261  0.94459213    -0.14800
C3140       C  0.15855008  0.79461865  0.96467495     0.07300
C3141       C  0.13615940  0.78230545  0.95756102    -0.14800
C3142       C  0.13534762  0.76402698  0.93178670    -0.14800
C3143       C  0.15688467  0.75795499  0.91241646     0.07300
C3144       C  0.17897496  0.77123683  0.91850244    -0.14800
H3145       H  0.19751553  0.79817207  0.95038436     0.11300
H3146       H  0.11983256  0.78548792  0.97351853     0.11300
H3147       H  0.11778488  0.75453508  0.92725061     0.11300
H3148       H  0.19566481  0.76736246  0.90361345     0.11300
C3149       C  0.11597373  0.71573976  0.59871755    -0.14800
C3150       C  0.12513000  0.72984570  0.57077333     0.07300
C3151       C  0.12197099  0.72075807  0.53702570    -0.14800
C3152       C  0.10950090  0.69809039  0.53131444    -0.14800
C3153       C  0.10051807  0.68384358  0.55931349     0.07300
C3154       C  0.10404916  0.69278451  0.59307915    -0.14800
H3155       H  0.11827448  0.72234678  0.62499195     0.11300
H3156       H  0.12877773  0.73138007  0.51508935     0.11300
H3157       H  0.10713955  0.69156018  0.50497817     0.11300
H3158       H  0.09726679  0.68222303  0.61507271     0.11300
C3159       C  0.44042646  0.82238296  0.96342023    -0.14800
C3160       C  0.43204925  0.81796185  0.92961040     0.07300
C3161       C  0.44922827  0.81862491  0.90218970    -0.14800
C3162       C  0.47379363  0.82645295  0.90811312    -0.14800
C3163       C  0.48157105  0.83277118  0.94164896     0.07300
C3164       C  0.46510926  0.82942299  0.96939767    -0.14800
H3165       H  0.42752570  0.82176535  0.98496834     0.11300
H3166       H  0.44310434  0.81533420  0.87587338     0.11300
H3167       H  0.48599034  0.82975166  0.88625449     0.11300
H3168       H  0.47060242  0.83483275  0.99530103     0.11300
C3169       C  0.34364476  0.87172020  0.81705928    -0.14800
C3170       C  0.35515659  0.87436743  0.84956627     0.07300
C3171       C  0.37361703  0.89275901  0.85366354    -0.14800
C3172       C  0.38287830  0.90555524  0.82471592    -0.14800
C3173       C  0.37374385  0.90021790  0.79131992     0.07300
C3174       C  0.35270853  0.88475634  0.78816851    -0.14800
H3175       H  0.32960977  0.85735039  0.81319506     0.11300
H3176       H  0.38316418  0.89477931  0.87819226     0.11300
H3177       H  0.39942398  0.91703539  0.82778147     0.11300
H3178       H  0.34566670  0.87985271  0.76279841     0.11300
C3179       C  0.34923800  0.74645534  0.81941977    -0.14800
C3180       C  0.32633187  0.74698095  0.83709340     0.07300
C3181       C  0.31151795  0.72522581  0.83750778    -0.14800
C3182       C  0.31816185  0.70443708  0.81724993    -0.14800
C3183       C  0.34000073  0.70494789  0.79715009     0.07300
C3184       C  0.35633888  0.72532895  0.80055269    -0.14800
H3185       H  0.36148432  0.76263137  0.81950918     0.11300
H3186       H  0.29410382  0.72488508  0.85170953     0.11300
H3187       H  0.30489177  0.68925837  0.81415116     0.11300
H3188       H  0.37291257  0.72647017  0.78454224     0.11300
C3189       C  0.36484094  0.76894296  0.54271648    -0.14800
C3190       C  0.34275620  0.78147108  0.53442439     0.07300
C3191       C  0.32098214  0.77699523  0.55371521    -0.14800
C3192       C  0.32097405  0.75919657  0.58001247    -0.14800
C3193       C  0.34264398  0.74536807  0.58683061     0.07300
C3194       C  0.36474467  0.75083267  0.56859337    -0.14800
H3195       H  0.38160869  0.77179702  0.52756463     0.11300
H3196       H  0.30363314  0.78629773  0.54711626     0.11300
H3197       H  0.30394764  0.75580558  0.59435270     0.11300
H3198       H  0.38200918  0.74106126  0.57426726     0.11300
C3199       C  0.27725258  0.83266519  0.51408444    -0.14800
C3200       C  0.27277730  0.83300486  0.97880248     0.07300
C3201       C  0.24820034  0.83516483  0.96706597    -0.14800
C3202       C  0.22855879  0.83705491  0.99084750    -0.14800
C3203       C  0.23289329  0.83505141  0.52618700     0.07300
C3204       C  0.25752145  0.83326321  0.53790018    -0.14800
H3205       H  0.29610413  0.83069035  0.52380287     0.11300
H3206       H  0.24416032  0.83482309  0.93963700     0.11300
H3207       H  0.20967856  0.83815680  0.98100036     0.11300
H3208       H  0.26144335  0.83175762  0.56528233     0.11300
C3209       C  0.35789855  0.69783646  0.93294228    -0.14800
C3210       C  0.37070593  0.71858442  0.91921901     0.07300
C3211       C  0.39579880  0.71574818  0.90936892    -0.14800
C3212       C  0.40809782  0.69293235  0.91413718    -0.14800
C3213       C  0.39543948  0.67225333  0.92809773     0.07300
C3214       C  0.37012307  0.67471806  0.93699137    -0.14800
H3215       H  0.33851358  0.69951176  0.94054856     0.11300
H3216       H  0.40617860  0.73142522  0.89881712     0.11300
H3217       H  0.42765821  0.69151852  0.90728807     0.11300
H3218       H  0.36011325  0.65908325  0.94831248     0.11300
C3219       C  0.54121832  0.89172933  0.69127880    -0.14800
C3220       C  0.51993960  0.87739829  0.69862880     0.07300
C3221       C  0.52258278  0.85184010  0.70686237    -0.14800
C3222       C  0.54609589  0.84069991  0.70752711    -0.14800
C3223       C  0.56748843  0.85501595  0.70064018     0.07300
C3224       C  0.56489232  0.88065518  0.69259153    -0.14800
H3225       H  0.53958667  0.91160006  0.68558424     0.11300
H3226       H  0.50639962  0.84050227  0.71295437     0.11300
H3227       H  0.54754960  0.82083926  0.71340941     0.11300
H3228       H  0.58109175  0.89197136  0.68658977     0.11300
C3229       C  0.68050424  0.79512582  0.81007242    -0.14800
C3230       C  0.65777858  0.79596749  0.79193080     0.07300
C3231       C  0.64009547  0.77707427  0.79766853    -0.14800
C3232       C  0.64607702  0.75629050  0.81795957    -0.14800
C3233       C  0.66954644  0.75442809  0.83402025     0.07300
C3234       C  0.68621657  0.77465141  0.83139981    -0.14800
H3235       H  0.69483443  0.80897475  0.80491942     0.11300
H3236       H  0.62284009  0.77683559  0.78305246     0.11300
H3237       H  0.63244938  0.74139184  0.82050331     0.11300
H3238       H  0.70416077  0.77396960  0.84423454     0.11300
C3239       C  0.67623162  0.74142515  0.57822442    -0.14800
C3240       C  0.65479453  0.75617721  0.58268615     0.07300
C3241       C  0.63296879  0.75000559  0.56411603    -0.14800
C3242       C  0.63299954  0.73033684  0.54031563    -0.14800
C3243       C  0.65489456  0.71673931  0.53446634     0.07300
C3244       C  0.67627066  0.72189905  0.55427404    -0.14800
H3245       H  0.69304806  0.74515606  0.59285682     0.11300
H3246       H  0.61581063  0.76046386  0.56776993     0.11300
H3247       H  0.61659449  0.72711187  0.52457427     0.11300
H3248       H  0.69354842  0.71187385  0.54947328     0.11300
C3249       C  0.61096008  0.89361861  0.60149376    -0.14800
C3250       C  0.63068584  0.87629876  0.59869259     0.07300
C3251       C  0.64007860  0.87094589  0.56548528    -0.14800
C3252       C  0.62873417  0.88113536  0.53569867    -0.14800
C3253       C  0.60734351  0.89640133  0.53847782     0.07300
C3254       C  0.59940604  0.90347034  0.57184143    -0.14800
H3255       H  0.60273116  0.89746555  0.62653852     0.11300
H3256       H  0.65462445  0.85696619  0.56238616     0.11300
H3257       H  0.63488168  0.87468028  0.51052740     0.11300
H3258       H  0.58269922  0.91473287  0.57498424     0.11300
C3259       C  0.58575077  0.72451649  0.69935501    -0.14800
C3260       C  0.61148040  0.72821240  0.69419869     0.07300
C3261       C  0.62735096  0.70718238  0.69380241    -0.14800
C3262       C  0.61777826  0.68302209  0.69800975    -0.14800
C3263       C  0.59212147  0.67922528  0.70329464     0.07300
C3264       C  0.57618646  0.70023801  0.70431397    -0.14800
H3265       H  0.57306006  0.74037604  0.69959465     0.11300
H3266       H  0.64719891  0.70932820  0.68944503     0.11300
H3267       H  0.63058497  0.66725492  0.69742489     0.11300
H3268       H  0.55633916  0.69785982  0.70839243     0.11300
C3269       C  0.94915987  0.83942603  0.78035375    -0.14800
C3270       C  0.92753625  0.85186478  0.79154917     0.07300
C3271       C  0.92865775  0.87761305  0.79948566    -0.14800
C3272       C  0.95122730  0.89056378  0.79729572    -0.14800
C3273       C  0.97292788  0.87810506  0.78640624     0.07300
C3274       C  0.97160927  0.85253203  0.77732091    -0.14800
H3275       H  0.94870586  0.81956635  0.77413767     0.11300
H3276       H  0.91224021  0.88753467  0.80850027     0.11300
H3277       H  0.95166902  0.91036136  0.80387225     0.11300
H3278       H  0.98805598  0.84255020  0.76853501     0.11300
C3279       C  0.88252220  0.88662254  0.89625273    -0.14800
C3280       C  0.86324174  0.86875637  0.89807055     0.07300
C3281       C  0.85324426  0.86291049  0.93067369    -0.14800
C3282       C  0.86349569  0.87334039  0.96093454    -0.14800
C3283       C  0.88420331  0.88950215  0.95922515     0.07300
C3284       C  0.89301759  0.89674250  0.92650126    -0.14800
H3285       H  0.89122609  0.89074834  0.87161928     0.11300
H3286       H  0.83911541  0.84847466  0.93296709     0.11300
H3287       H  0.85695531  0.86668410  0.98579991     0.11300
H3288       H  0.90947457  0.90844086  0.92442907     0.11300
C3289       C  0.81938719  0.79311568  0.68180366    -0.14800
C3290       C  0.84210193  0.79345033  0.69989186     0.07300
C3291       C  0.85964055  0.77444596  0.69363476    -0.14800
C3292       C  0.85274313  0.75307848  0.67521624    -0.14800
C3293       C  0.82882060  0.75123911  0.66063424     0.07300
C3294       C  0.81281312  0.77212275  0.66204502    -0.14800
H3295       H  0.80540006  0.80739335  0.68679287     0.11300
H3296       H  0.87713481  0.77417891  0.70769999     0.11300
H3297       H  0.86587660  0.73764641  0.67336292     0.11300
H3298       H  0.79459393  0.77149355  0.64996685     0.11300
C3299       C  0.86215613  0.73930091  0.92510362    -0.14800
C3300       C  0.84014956  0.74866023  0.90977447     0.07300
C3301       C  0.81708730  0.73867071  0.91965624    -0.14800
C3302       C  0.81596620  0.72114096  0.94639171    -0.14800
C3303       C  0.83791262  0.71304201  0.96309544     0.07300
C3304       C  0.86105304  0.72149135  0.95137984    -0.14800
H3305       H  0.88034293  0.74593201  0.91699535     0.11300
H3306       H  0.79997297  0.74498546  0.90755859     0.11300
H3307       H  0.79783577  0.71490293  0.95532116     0.11300
H3308       H  0.87811402  0.71578075  0.96419727     0.11300
C3309       C  0.75815346  0.84520627  0.76205316    -0.14800
C3310       C  0.76768559  0.82158155  0.77209448     0.07300
C3311       C  0.75678722  0.80002363  0.75731570    -0.14800
C3312       C  0.73746936  0.80197038  0.73282225    -0.14800
C3313       C  0.72787217  0.82550896  0.72277687     0.07300
C3314       C  0.73812181  0.84711128  0.73842315    -0.14800
H3315       H  0.76632077  0.86225579  0.77233846     0.11300
H3316       H  0.76392088  0.78154657  0.76363908     0.11300
H3317       H  0.72954800  0.78486168  0.72232728     0.11300
H3318       H  0.73079268  0.86550877  0.73210634     0.11300
C3319       C  0.91514997  0.71707057  0.80872607    -0.14800
C3320       C  0.88959465  0.72161325  0.80276861     0.07300
C3321       C  0.87411737  0.70100570  0.79497281    -0.14800
C3322       C  0.88374021  0.67658268  0.79368474    -0.14800
C3323       C  0.90918962  0.67206623  0.79949899     0.07300
C3324       C  0.92490495  0.69257600  0.80664976    -0.14800
H3325       H  0.92757659  0.73240164  0.81520187     0.11300
H3326       H  0.85434475  0.70363554  0.79052092     0.11300
H3327       H  0.87128525  0.66119088  0.78752178     0.11300
H3328       H  0.94463857  0.68960182  0.81108318     0.11300
loop_ 
_geom_bond_atom_site_label_1 
_geom_bond_atom_site_label_2 
_geom_bond_distance 
_geom_bond_site_symmetry_2 
_ccdc_geom_bond_type 
Fe1          O17   2.062       .  S
Fe1           O7   2.072       .  S
Fe1          O14   2.072       .  S
Fe1           O6   2.035       .  S
Fe1          O12   1.958       .  S
Fe2           O5   2.085       .  S
Fe2           O9   2.040       .  S
Fe2          O13   2.067       .  S
Fe2          O18   2.048       .  S
Fe2          O12   1.951       .  S
Fe3          O21   2.103       .  S
Fe3           O8   2.067       .  S
Fe3          O15   2.081       .  S
Fe3           O4   2.088       .  S
Fe3          O12   1.974       .  S
O4           C11   1.282       .  A
O5           C19   1.279       .  A
O6           C11   1.273       .  A
O7           C10   1.269       .  A
O8           C20   1.262       .  A
O9           C22   1.269       .  A
C10          O15   1.266       .  A
C10        C1646   1.500       .  S
C11        C1626   1.451       .  S
O13          C16   1.267       .  A
O14          C16   1.269       .  A
C16        C1656   1.490       .  S
O17          C22   1.274       .  A
O18          C20   1.258       .  A
C19          O21   1.286       .  A
C19        C1616   1.483       .  S
C20        C1606   1.470       .  S
C22        C1636   1.468       .  S
Fe23         O39   2.060       .  S
Fe23         O29   2.060       .  S
Fe23         O36   2.064       .  S
Fe23         O28   2.042       .  S
Fe23         O34   1.950       .  S
Fe24         O27   2.093       .  S
Fe24         O31   2.036       .  S
Fe24         O35   2.064       .  S
Fe24         O40   2.036       .  S
Fe24         O34   1.940       .  S
Fe25         O43   2.111       .  S
Fe25         O30   2.082       .  S
Fe25         O37   2.093       .  S
Fe25         O26   2.101       .  S
Fe25         O34   1.968       .  S
O26          C33   1.287       .  A
O27          C41   1.282       .  A
O28          C33   1.272       .  A
O29          C32   1.267       .  A
O30          C42   1.262       .  A
O31          C44   1.267       .  A
C32          O37   1.267       .  A
C32        C1649   1.500       .  S
C33        C1566   1.458       .  S
O35          C38   1.267       .  A
O36          C38   1.269       .  A
C38        C1596   1.481       .  S
O39          C44   1.274       .  A
O40          C42   1.254       .  A
C41          O43   1.291       .  A
C41        C1586   1.489       .  S
C42        C1559   1.472       .  S
C44        C1576   1.471       .  S
Fe45         O61   2.077       .  S
Fe45         O51   2.041       .  S
Fe45         O58   2.078       .  S
Fe45         O50   2.072       .  S
Fe45         O56   1.985       .  S
Fe46         O49   2.051       .  S
Fe46         O53   2.076       .  S
Fe46         O57   2.019       .  S
Fe46         O62   2.058       .  S
Fe46         O56   1.947       .  S
Fe47         O65   2.068       .  S
Fe47         O52   2.098       .  S
Fe47         O48   2.082       .  S
Fe47       O1723   2.067       .  S
Fe47         O56   1.952       .  S
O48          C55   1.273       .  A
O49          C63   1.263       .  A
O50          C55   1.276       .  A
O51        C1718   1.263       .  A
O52          C64   1.279       .  A
O53          C66   1.276       .  A
C54          O59   1.270   1_554  A
C54        O1715   1.262   1_554  A
C54        C1526   1.451       .  S
C55        C1536   1.481       .  S
O57          C60   1.254       .  A
O58          C60   1.259       .  A
O59       Fe1711   2.068       .  S
C60        C1516   1.476       .  S
O61          C66   1.277       .  A
O62          C64   1.272       .  A
C63          O65   1.269       .  A
C63        C1496   1.472       .  S
C64        C1506   1.477       .  S
C66        C1546   1.478       .  S
Fe67         O83   2.071       .  S
Fe67         O73   2.042       .  S
Fe67         O80   2.078       .  S
Fe67         O72   2.070       .  S
Fe67         O78   1.970       .  S
Fe68         O71   2.063       .  S
Fe68         O75   2.082       .  S
Fe68         O79   2.026       .  S
Fe68         O84   2.074       .  S
Fe68         O78   1.935       .  S
Fe69         O87   2.067       .  S
Fe69         O74   2.095       .  S
Fe69         O70   2.089       .  S
Fe69       O1745   2.090       .  S
Fe69         O78   1.941       .  S
O70          C77   1.275       .  A
O71          C85   1.266       .  A
O72          C77   1.277       .  A
O73        C1740   1.261   1_554  A
O74          C86   1.282       .  A
O75          C88   1.276       .  A
C76          O81   1.275       .  A
C76        O1737   1.260       .  A
C76        C1476   1.459       .  S
C77        C1539   1.483       .  S
O79          C82   1.259       .  A
O80          C82   1.263       .  A
O81       Fe1733   2.091       .  S
C82        C1469   1.471       .  S
O83          C88   1.276       .  A
O84          C86   1.276       .  A
C85          O87   1.268       .  A
C85        C1446   1.475       .  S
C86        C1456   1.481       .  S
C88        C1486   1.473       .  S
Fe89        O105   2.064       .  S
Fe89         O95   2.061       .  S
Fe89        O102   2.064       .  S
Fe89         O94   2.044       .  S
Fe89        O100   1.946       .  S
Fe90         O93   2.091       .  S
Fe90         O97   2.029       .  S
Fe90        O101   2.072       .  S
Fe90        O106   2.036       .  S
Fe90        O100   1.936       .  S
Fe91        O109   2.105       .  S
Fe91         O96   2.080       .  S
Fe91        O103   2.095       .  S
Fe91         O92   2.087       .  S
Fe91        O100   1.960       .  S
O92          C99   1.280       .  A
O93         C107   1.279       .  A
O94          C99   1.271       .  A
O95          C98   1.270       .  A
O96         C108   1.265       .  A
O97         C110   1.267       .  A
C98         O103   1.270       .  A
C98        C1426   1.503       .  S
C99        C1519   1.452       .  S
O101        C104   1.268       .  A
O102        C104   1.269       .  A
C104       C1436   1.483       .  S
O105        C110   1.274       .  A
O106        C108   1.257       .  A
C107        O109   1.287       .  A
C107       C1406   1.487       .  S
C108       C1416   1.467       .  S
C110       C1529   1.463       .  S
Fe111       O127   2.071       .  S
Fe111       O117   2.071       .  S
Fe111       O124   2.067       .  S
Fe111       O116   2.040       .  S
Fe111       O122   1.953       .  S
Fe112       O115   2.097       .  S
Fe112       O119   2.032       .  S
Fe112       O123   2.076       .  S
Fe112       O128   2.039       .  S
Fe112       O122   1.944       .  S
Fe113       O131   2.094       .  S
Fe113       O118   2.074       .  S
Fe113       O125   2.077       .  S
Fe113       O114   2.089       .  S
Fe113       O122   1.971       .  S
O114        C121   1.284       .  A
O115        C129   1.283       .  A
O116        C121   1.274       .  A
O117        C120   1.269       .  A
O118        C130   1.261       .  A
O119        C132   1.266       .  A
C120        O125   1.264       .  A
C120       C1429   1.495       .  S
C121       C1466   1.451       .  S
O123        C126   1.269       .  A
O124        C126   1.268       .  A
C126       C1396   1.486       .  S
O127        C132   1.276       .  A
O128        C130   1.255       .  A
C129        O131   1.287       .  A
C129       C1386   1.484       .  S
C130       C1376   1.475       .  S
C132       C1479   1.473       .  S
Fe133       O149   2.062       .  S
Fe133       O139   2.036       .  S
Fe133       O146   2.059       .  S
Fe133       O138   2.057       .  S
Fe133       O144   1.954       .  S
Fe134       O137   2.051       .  S
Fe134       O141   2.066       .  S
Fe134      O1809   2.052       .  S
Fe134      O1814   2.085       .  S
Fe134       O144   1.949       .  S
Fe135       O153   2.060       .  S
Fe135       O140   2.098       .  S
Fe135       O147   2.091       .  S
Fe135       O136   2.075       .  S
Fe135       O144   1.973       .  S
O136        C143   1.262       .  A
O137        C151   1.258       .  A
O138        C143   1.266       .  A
O139        C142   1.272       .  A
O140        C152   1.287       .  A
O141        C154   1.268   1_655  A
C142        O147   1.283       .  A
C142       C1336   1.452       .  S
C143       C1356   1.488       .  S
O145      Fe1798   2.049   1_554  S
O145        C148   1.269       .  A
O146       C1812   1.272       .  A
C148       O1810   1.272   1_554  A
C148       C1326   1.474       .  S
O149        C154   1.269   1_655  A
O150      Fe1798   2.085   1_554  S
O150       C1816   1.280       .  A
C151        O153   1.260       .  A
C151       C1349   1.472       .  S
C152       O1814   1.281       .  A
C152       C2980   1.479       .  S
C154       C1366   1.480       .  S
Fe155       O171   2.068       .  S
Fe155       O161   2.039       .  S
Fe155       O168   2.071       .  S
Fe155       O160   2.060       .  S
Fe155       O166   1.969       .  S
Fe156       O159   2.058       .  S
Fe156       O163   2.055       .  S
Fe156       O167   2.039       .  S
Fe156       O172   2.052       .  S
Fe156       O166   1.937       .  S
Fe157       O175   2.096       .  S
Fe157       O162   2.112       .  S
Fe157       O169   2.089       .  S
Fe157       O158   2.097       .  S
Fe157       O166   1.960       .  S
O158        C165   1.275       .  A
O159        C173   1.266       .  A
O160        C165   1.274       .  A
O161        C164   1.265       .  A
O162        C174   1.282       .  A
O163        C176   1.268   1_655  A
C164        O169   1.279       .  A
C164       C1309   1.461       .  S
C165       C1359   1.496       .  S
O167        C170   1.265       .  A
O168        C170   1.266       .  A
C170       C1299   1.462       .  S
O171        C176   1.272   1_655  A
O172        C174   1.268       .  A
C173        O175   1.274       .  A
C173       C1659   1.483       .  S
C174       C1286   1.485       .  S
C176       C1379   1.466       .  S
Fe177       O193   2.066       .  S
Fe177       O183   2.043       .  S
Fe177       O190   2.065       .  S
Fe177       O182   2.061       .  S
Fe177       O188   1.966       .  S
Fe178       O181   2.063       .  S
Fe178       O185   2.051       .  S
Fe178       O189   2.040       .  S
Fe178       O194   2.062       .  S
Fe178       O188   1.942       .  S
Fe179       O197   2.068       .  S
Fe179       O184   2.086       .  S
Fe179       O191   2.082       .  S
Fe179       O180   2.081       .  S
Fe179       O188   1.959       .  S
O180        C187   1.269       .  A
O181        C195   1.263       .  A
O182        C187   1.272       .  A
O183        C186   1.265       .  A
O184        C196   1.280       .  A
O185        C198   1.269       .  A
C186        O191   1.276       .  A
C186       C1269   1.454       .  S
C187       C1279   1.483       .  S
O189        C192   1.265       .  A
O190        C192   1.265       .  A
C192       C1256   1.470       .  S
O193        C198   1.273       .  A
O194        C196   1.275       .  A
C195        O197   1.266       .  A
C195       C1599   1.480       .  S
C196       C1246   1.469       .  S
C198       C1419   1.466       .  S
Fe199       O215   2.061       .  S
Fe199       O205   2.040       .  S
Fe199       O212   2.055       .  S
Fe199       O204   2.043       .  S
Fe199       O210   1.957       .  S
Fe200       O203   2.059       .  S
Fe200       O207   2.064       .  S
Fe200      O1875   2.048   1_554  S
Fe200      O1880   2.057   1_554  S
Fe200       O210   1.928       .  S
Fe201       O219   2.107       .  S
Fe201       O206   2.094       .  S
Fe201       O213   2.084       .  S
Fe201       O202   2.112       .  S
Fe201       O210   1.962       .  S
O202        C209   1.276       .  A
O203        C217   1.267       .  A
O204        C209   1.269       .  A
O205        C208   1.263       .  A
O206        C218   1.279   1_554  A
O207        C220   1.271       .  A
C208        O213   1.277       .  A
C208       C1216   1.457       .  S
C209       C1276   1.485       .  S
O211      Fe1864   2.048       .  S
O211        C214   1.265       .  A
O212       C1878   1.261   1_554  A
C214       O1876   1.261       .  A
C214       C1206   1.455       .  S
O215        C220   1.273       .  A
O216      Fe1864   2.058       .  S
O216       C1882   1.271       .  A
C217        O219   1.277       .  A
C217       C1226   1.489       .  S
C218       O1880   1.270       .  A
C218       C2860   1.476       .  S
C220       C1236   1.467       .  S
Fe221       O237   2.076       .  S
Fe221       O227   2.063       .  S
Fe221       O234   2.071       .  S
Fe221       O226   2.041       .  S
Fe221       O232   1.982       .  S
Fe222       O225   2.062       .  S
Fe222       O229   2.035       .  S
Fe222       O233   2.055       .  S
Fe222       O238   2.053       .  S
Fe222       O232   1.951       .  S
Fe223       O241   2.115       .  S
Fe223       O228   2.079       .  S
Fe223       O235   2.107       .  S
Fe223      O1888   2.091       .  S
Fe223       O232   1.966       .  S
O224      Fe1887   2.092       .  S
O224        C231   1.276   1_556  A
O225        C239   1.272       .  A
O226       C1895   1.264       .  A
O227        C230   1.275       .  A
O228        C240   1.270       .  A
O229        C242   1.263       .  A
C230        O235   1.276       .  A
C230       C1186   1.494       .  S
C231       O1890   1.264   1_554  A
C231       C1166   1.464       .  S
O233        C236   1.268       .  A
O234        C236   1.273       .  A
C236       C1346   1.469       .  S
O237        C242   1.265       .  A
O238        C240   1.263       .  A
C239        O241   1.285       .  A
C239       C1156   1.489       .  S
C240       C1146   1.477       .  S
C242       C1176   1.477       .  S
Fe243       O259   2.064       .  S
Fe243       O249   2.058       .  S
Fe243       O256   2.074       .  S
Fe243       O248   2.047       .  S
Fe243       O254   1.949       .  S
Fe244       O247   2.096       .  S
Fe244       O251   2.019       .  S
Fe244       O255   2.080       .  S
Fe244       O260   2.043       .  S
Fe244       O254   1.931       .  S
Fe245       O263   2.092       .  S
Fe245       O250   2.086       .  S
Fe245       O257   2.092       .  S
Fe245       O246   2.083       .  S
Fe245       O254   1.970       .  S
O246       C1917   1.284   1_554  A
O247        C261   1.282       .  A
O248       C1917   1.275   1_554  A
O249        C252   1.266       .  A
O250        C262   1.264       .  A
O251        C264   1.265       .  A
C252        O257   1.266       .  A
C252       C1189   1.497       .  S
C253       O1910   1.284       .  A
C253       O1912   1.275       .  A
C253       C1116   1.450       .  S
O255        C258   1.272       .  A
O256        C258   1.270       .  A
C258       C1229   1.493       .  S
O259        C264   1.273       .  A
O260        C262   1.257       .  A
C261        O263   1.286       .  A
C261       C1139   1.482       .  S
C262       C1106   1.476       .  S
C264       C1126   1.466       .  S
Fe265       O281   2.060       .  S
Fe265       O271   2.040       .  S
Fe265       O278   2.067       .  S
Fe265       O270   2.060       .  S
Fe265       O276   1.953       .  S
Fe266       O269   2.050       .  S
Fe266       O273   2.069       .  S
Fe266      O1941   2.050       .  S
Fe266      O1946   2.084       .  S
Fe266       O276   1.948       .  S
Fe267       O285   2.063       .  S
Fe267       O272   2.096       .  S
Fe267       O279   2.090       .  S
Fe267       O268   2.074       .  S
Fe267       O276   1.976       .  S
O268        C275   1.263       .  A
O269        C283   1.259       .  A
O270        C275   1.267       .  A
O271        C274   1.274       .  A
O272        C284   1.286       .  A
O273        C286   1.269   1_455  A
C274        O279   1.284       .  A
C274       C1096   1.453       .  S
C275       C1076   1.496       .  S
O277      Fe1930   2.051   1_554  S
O277        C280   1.268       .  A
O278       C1944   1.274       .  A
C280       O1942   1.274   1_554  A
C280       C1086   1.481   1_455  S
O281        C286   1.268   1_455  A
O282      Fe1930   2.080   1_554  S
O282       C1948   1.281       .  A
C283        O285   1.260       .  A
C283       C1066   1.476       .  S
C284       O1946   1.281       .  A
C284       C2720   1.476       .  S
C286       C1149   1.481       .  S
Fe287       O303   2.069       .  S
Fe287       O293   2.040       .  S
Fe287       O300   2.078       .  S
Fe287       O292   2.064       .  S
Fe287       O298   1.981       .  S
Fe288       O291   2.056       .  S
Fe288       O295   2.058       .  S
Fe288       O299   2.034       .  S
Fe288       O304   2.059       .  S
Fe288       O298   1.950       .  S
Fe289       O307   2.090       .  S
Fe289       O294   2.103       .  S
Fe289       O301   2.084       .  S
Fe289       O290   2.102       .  S
Fe289       O298   1.964       .  S
O290        C297   1.275       .  A
O291        C305   1.265       .  A
O292        C297   1.274       .  A
O293        C296   1.265       .  A
O294        C306   1.282       .  A
O295        C308   1.269   1_455  A
C296        O301   1.276       .  A
C296       C1046   1.459       .  S
C297       C1079   1.495       .  S
O299        C302   1.263       .  A
O300        C302   1.266       .  A
C302       C1036   1.477   1_455  S
O303        C308   1.273   1_455  A
O304        C306   1.271       .  A
C305        O307   1.272       .  A
C305       C1399   1.486       .  S
C306       C1459   1.480       .  S
C308       C1609   1.472       .  S
Fe309       O325   2.081       .  S
Fe309       O315   2.061       .  S
Fe309       O322   2.070       .  S
Fe309       O314   2.047       .  S
Fe309       O320   1.981       .  S
Fe310       O313   2.065       .  S
Fe310       O317   2.028       .  S
Fe310       O321   2.061       .  S
Fe310       O326   2.052       .  S
Fe310       O320   1.940       .  S
Fe311       O329   2.119       .  S
Fe311       O316   2.082       .  S
Fe311       O323   2.119       .  S
Fe311      O1976   2.097       .  S
Fe311       O320   1.953       .  S
O312      Fe1975   2.093       .  S
O312        C319   1.277   1_556  A
O313        C327   1.273       .  A
O314       C1983   1.263       .  A
O315        C318   1.275       .  A
O316        C328   1.270       .  A
O317        C330   1.260       .  A
C318        O323   1.279       .  A
C318        C996   1.499       .  S
C319       O1978   1.264   1_554  A
C319       C1016   1.463       .  S
O321        C324   1.270       .  A
O322        C324   1.274       .  A
C324       C1069   1.466       .  S
O325        C330   1.265       .  A
O326        C328   1.263       .  A
C327        O329   1.288       .  A
C327       C1009   1.491       .  S
C328       C1369   1.479       .  S
C330       C1026   1.474       .  S
Fe331       O347   2.068       .  S
Fe331       O337   2.064       .  S
Fe331       O344   2.067       .  S
Fe331       O336   2.040       .  S
Fe331       O342   1.948       .  S
Fe332       O335   2.089       .  S
Fe332       O339   2.032       .  S
Fe332       O343   2.069       .  S
Fe332       O348   2.034       .  S
Fe332       O342   1.939       .  S
Fe333       O351   2.095       .  S
Fe333       O338   2.088       .  S
Fe333       O345   2.095       .  S
Fe333      O1998   2.088       .  S
Fe333       O342   1.975       .  S
O334      Fe1997   2.088       .  S
O334        C341   1.283       .  A
O335        C349   1.281       .  A
O336       C2005   1.272   1_554  A
O337        C340   1.269       .  A
O338        C350   1.264       .  A
O339        C352   1.267       .  A
C340        O345   1.267       .  A
C340        C999   1.499       .  S
C341       O2000   1.272       .  A
C341        C969   1.451       .  S
O343        C346   1.268       .  A
O344        C346   1.270       .  A
C346        C986   1.484       .  S
O347        C352   1.274       .  A
O348        C350   1.254       .  A
C349        O351   1.286       .  A
C349        C956   1.481       .  S
C350       C1239   1.472       .  S
C352        C976   1.473       .  S
Fe353       O369   2.063       .  S
Fe353       O359   2.095       .  S
Fe353       O366   2.055   1_455  S
Fe353       O358   2.019       .  S
Fe353       O364   1.921       .  S
Fe354       O365   2.086       .  S
Fe354       O370   2.072       .  S
Fe354      O2021   2.049   1_554  S
Fe354      O2025   2.061   1_554  S
Fe354       O364   1.927       .  S
Fe355       O373   2.139       .  S
Fe355       O360   2.070       .  S
Fe355       O367   2.093       .  S
Fe355       O356   2.121       .  S
Fe355       O364   1.973       .  S
O356        C363   1.271       .  A
O357      Fe2018   2.049       .  S
O357       C2035   1.269       .  A
O358        C363   1.252       .  A
O359        C362   1.278       .  A
O360        C372   1.272       .  A
O361      Fe2018   2.060       .  S
O361        C374   1.273       .  A
C362        O367   1.282       .  A
C362        C936   1.509       .  S
C363       C1296   1.469       .  S
O365        C368   1.271       .  A
O366        C368   1.264   1_655  A
C368        C946   1.466   1_455  S
O369       C2038   1.275   1_554  A
O370        C372   1.270       .  A
C371        O373   1.286   1_556  A
C371       O2021   1.269       .  A
C371       C3053   1.485       .  S
C372       C1489   1.477       .  S
C374       O2033   1.275       .  A
C374       C1306   1.472   1_455  S
Fe375       O391   2.073       .  S
Fe375       O381   2.058       .  S
Fe375       O388   2.078       .  S
Fe375       O380   2.043       .  S
Fe375       O386   1.976       .  S
Fe376       O379   2.063       .  S
Fe376       O383   2.027       .  S
Fe376       O387   2.069       .  S
Fe376       O392   2.052       .  S
Fe376       O386   1.936       .  S
Fe377       O395   2.118       .  S
Fe377       O382   2.085       .  S
Fe377       O389   2.124       .  S
Fe377       O378   2.089       .  S
Fe377       O386   1.953       .  S
O378        C385   1.276       .  A
O379        C393   1.272       .  A
O380        C385   1.262       .  A
O381        C384   1.275       .  A
O382        C394   1.272       .  A
O383        C396   1.259       .  A
C384        O389   1.279       .  A
C384        C939   1.502       .  S
C385       C1329   1.459       .  S
O387        C390   1.272   1_455  A
O388        C390   1.276   1_455  A
C390        C926   1.475       .  S
O391        C396   1.263       .  A
O392        C394   1.265       .  A
C393        O395   1.286       .  A
C393       C1006   1.490       .  S
C394        C916   1.480       .  S
C396       C1339   1.471   1_455  S
Fe397       O413   2.069       .  S
Fe397       O403   2.060       .  S
Fe397       O410   2.061       .  S
Fe397       O402   2.034       .  S
Fe397       O408   1.960       .  S
Fe398       O409   2.066       .  S
Fe398       O414   2.049       .  S
Fe398      O2065   2.089   1_554  S
Fe398      O2069   2.043   1_554  S
Fe398       O408   1.949       .  S
Fe399       O417   2.101       .  S
Fe399       O404   2.063       .  S
Fe399       O411   2.072       .  S
Fe399       O400   2.099       .  S
Fe399       O408   1.974       .  S
O400        C407   1.285       .  A
O401      Fe2062   2.091       .  S
O401       C2079   1.282       .  A
O402        C407   1.271       .  A
O403        C406   1.268       .  A
O404        C416   1.260       .  A
O405      Fe2062   2.042       .  S
O405        C418   1.267       .  A
C406        O411   1.263       .  A
C406        C906   1.494       .  S
C407       C1039   1.456       .  S
O409        C412   1.269       .  A
O410        C412   1.269       .  A
C412       C1449   1.479   1_655  S
O413       C2082   1.273   1_554  A
O414        C416   1.258       .  A
C415        O417   1.287   1_556  A
C415       O2065   1.281       .  A
C415       C3283   1.484       .  S
C416        C896   1.471       .  S
C418       O2077   1.272       .  A
C418       C1049   1.475   1_655  S
Fe419       O435   2.078       .  S
Fe419       O425   2.057       .  S
Fe419       O432   2.064       .  S
Fe419       O424   2.040       .  S
Fe419       O430   1.985       .  S
Fe420       O423   2.059       .  S
Fe420       O427   2.026       .  S
Fe420       O431   2.062       .  S
Fe420       O436   2.053       .  S
Fe420       O430   1.948       .  S
Fe421       O439   2.118       .  S
Fe421       O426   2.078       .  S
Fe421       O433   2.105       .  S
Fe421       O422   2.100       .  S
Fe421       O430   1.953       .  S
O422        C429   1.278       .  A
O423        C437   1.272       .  A
O424        C429   1.262       .  A
O425        C428   1.275       .  A
O426        C438   1.271       .  A
O427        C440   1.258       .  A
C428        O433   1.277       .  A
C428        C909   1.492       .  S
C429       C1089   1.467       .  S
O431        C434   1.271   1_655  A
O432        C434   1.274   1_655  A
C434        C889   1.467       .  S
O435        C440   1.262       .  A
O436        C438   1.264       .  A
C437        O439   1.286       .  A
C437       C1159   1.488       .  S
C438        C876   1.479       .  S
C440       C1099   1.475   1_655  S
Fe441       O457   2.078       .  S
Fe441       O447   2.040       .  S
Fe441       O454   2.070       .  S
Fe441       O446   2.063       .  S
Fe441       O452   1.987       .  S
Fe442       O445   2.053       .  S
Fe442       O449   2.063       .  S
Fe442       O453   2.024       .  S
Fe442       O458   2.059       .  S
Fe442       O452   1.951       .  S
Fe443       O461   2.071       .  S
Fe443       O448   2.117       .  S
Fe443       O444   2.091       .  S
Fe443      O2119   2.080       .  S
Fe443       O452   1.954       .  S
O444        C451   1.275       .  A
O445        C459   1.264       .  A
O446        C451   1.274       .  A
O447       C2114   1.261   1_554  A
O448        C460   1.284       .  A
O449        C462   1.273       .  A
C450        O455   1.272       .  A
C450       O2111   1.261       .  A
C450       C1639   1.460       .  S
C451        C866   1.482       .  S
O453        C456   1.257       .  A
O454        C456   1.259       .  A
O455      Fe2107   2.077       .  S
C456       C1629   1.473       .  S
O457        C462   1.277       .  A
O458        C460   1.271       .  A
C459        O461   1.269       .  A
C459        C949   1.478       .  S
C460       C1289   1.486       .  S
C462        C899   1.474       .  S
Fe463       O479   2.068       .  S
Fe463       O469   2.046       .  S
Fe463       O476   2.083       .  S
Fe463       O468   2.082       .  S
Fe463       O474   1.965       .  S
Fe464       O467   2.072       .  S
Fe464       O471   2.081       .  S
Fe464       O475   2.028       .  S
Fe464       O480   2.070       .  S
Fe464       O474   1.939       .  S
Fe465       O483   2.056       .  S
Fe465       O470   2.080       .  S
Fe465       O466   2.069       .  S
Fe465      O2141   2.079       .  S
Fe465       O474   1.944       .  S
O466        C473   1.269       .  A
O467        C481   1.266       .  A
O468        C473   1.277       .  A
O469       C2136   1.265       .  A
O470        C482   1.278       .  A
O471        C484   1.275       .  A
C472        O477   1.276   1_554  A
C472       O2133   1.265   1_554  A
C472       C1579   1.454       .  S
C473        C869   1.483       .  S
O475        C478   1.259       .  A
O476        C478   1.266       .  A
O477      Fe2129   2.080       .  S
C478       C1569   1.477       .  S
O479        C484   1.276       .  A
O480        C482   1.276       .  A
C481        O483   1.265       .  A
C481        C846   1.473       .  S
C482       C1249   1.469       .  S
C484        C856   1.477       .  S
Fe485       O501   2.076       .  S
Fe485       O491   2.042       .  S
Fe485       O498   2.062       .  S
Fe485       O490   2.077       .  S
Fe485       O496   1.967       .  S
Fe486       O489   2.072       .  S
Fe486       O493   2.048       .  S
Fe486       O497   2.048       .  S
Fe486       O502   2.045       .  S
Fe486       O496   1.939       .  S
Fe487       O505   2.067       .  S
Fe487       O492   2.104       .  S
Fe487       O499   2.095       .  S
Fe487       O488   2.066       .  S
Fe487       O496   1.956       .  S
O488        C495   1.268       .  A
O489        C503   1.267       .  A
O490        C495   1.274       .  A
O491        C494   1.265       .  A
O492        C504   1.281       .  A
O493        C506   1.268       .  A
C494        O499   1.279       .  A
C494        C836   1.468       .  S
C495        C816   1.475       .  S
O497        C500   1.266       .  A
O498        C500   1.264       .  A
C500        C826   1.463       .  S
O501        C506   1.275       .  A
O502        C504   1.269       .  A
C503        O505   1.268       .  A
C503       C1439   1.480       .  S
C504       C1509   1.477       .  S
C506       C1556   1.469       .  S
Fe507       O523   2.081       .  S
Fe507       O513   2.028       .  S
Fe507       O520   2.038       .  S
Fe507       O512   2.065       .  S
Fe507       O518   1.965       .  S
Fe508       O511   2.072       .  S
Fe508       O515   2.058       .  S
Fe508       O524   2.057   1_554  S
Fe508      O2183   2.055   1_554  S
Fe508       O518   1.941       .  S
Fe509       O527   2.069       .  S
Fe509       O514   2.110       .  S
Fe509       O521   2.098       .  S
Fe509       O510   2.081       .  S
Fe509       O518   1.959       .  S
O510        C517   1.272       .  A
O511        C525   1.268       .  A
O512        C517   1.273       .  A
O513        C516   1.260       .  A
O514        C526   1.282   1_554  A
O515        C528   1.271       .  A
C516        O521   1.278       .  A
C516        C806   1.464       .  S
C517        C819   1.477       .  S
O519      Fe2172   2.054       .  S
O519        C522   1.266       .  A
O520       C2186   1.258   1_554  A
C522       O2184   1.258       .  A
C522        C796   1.449       .  S
O523        C528   1.277       .  A
O524        C526   1.271       .  A
C525        O527   1.269       .  A
C525        C989   1.481       .  S
C526       C2453   1.486       .  S
C528       C1109   1.475       .  S
Fe529       O545   2.066       .  S
Fe529       O535   2.041       .  S
Fe529       O542   2.074       .  S
Fe529       O534   2.056       .  S
Fe529       O540   1.971       .  S
Fe530       O533   2.064       .  S
Fe530       O537   2.074       .  S
Fe530       O541   2.029       .  S
Fe530       O546   2.063       .  S
Fe530       O540   1.940       .  S
Fe531       O549   2.079       .  S
Fe531       O536   2.105       .  S
Fe531       O543   2.086       .  S
Fe531       O532   2.113       .  S
Fe531       O540   1.942       .  S
O532        C539   1.281       .  A
O533        C547   1.267       .  A
O534        C539   1.277       .  A
O535        C538   1.257       .  A
O536        C548   1.282       .  A
O537        C550   1.274       .  A
C538        O543   1.271       .  A
C538        C979   1.454       .  S
C539        C766   1.492       .  S
O541        C544   1.260       .  A
O542        C544   1.263       .  A
C544        C966   1.469       .  S
O545        C550   1.276       .  A
O546        C548   1.272       .  A
C547        O549   1.273       .  A
C547        C756   1.488       .  S
C548        C786   1.481       .  S
C550        C776   1.471       .  S
Fe551       O567   2.060       .  S
Fe551       O557   2.041       .  S
Fe551       O564   2.065       .  S
Fe551       O556   2.061       .  S
Fe551       O562   1.953       .  S
Fe552       O555   2.050       .  S
Fe552       O559   2.069       .  S
Fe552       O563   2.052       .  S
Fe552       O568   2.088       .  S
Fe552       O562   1.952       .  S
Fe553       O571   2.057       .  S
Fe553       O558   2.093       .  S
Fe553       O565   2.093       .  S
Fe553       O554   2.066       .  S
Fe553       O562   1.975       .  S
O554        C561   1.261       .  A
O555        C569   1.258       .  A
O556        C561   1.267       .  A
O557        C560   1.273       .  A
O558        C570   1.285       .  A
O559        C572   1.269       .  A
C560        O565   1.284       .  A
C560       C1029   1.455       .  S
C561        C769   1.490       .  S
O563        C566   1.268       .  A
O564        C566   1.273       .  A
C566       C1019   1.480       .  S
O567        C572   1.268       .  A
O568        C570   1.282       .  A
C569        O571   1.259       .  A
C569        C886   1.469       .  S
C570       C1059   1.478       .  S
C572        C919   1.479       .  S
Fe573       O589   2.063       .  S
Fe573       O579   2.092       .  S
Fe573       O586   2.053       .  S
Fe573       O578   2.018       .  S
Fe573       O584   1.918       .  S
Fe574       O585   2.076       .  S
Fe574       O590   2.061       .  S
Fe574      O2241   2.044       .  S
Fe574      O2245   2.067       .  S
Fe574       O584   1.930       .  S
Fe575       O593   2.158       .  S
Fe575       O580   2.079       .  S
Fe575       O587   2.094       .  S
Fe575       O576   2.130       .  S
Fe575       O584   1.973       .  S
O576        C583   1.273       .  A
O577      Fe2238   2.043   1_554  S
O577        C591   1.270       .  A
O578        C583   1.253       .  A
O579        C582   1.277       .  A
O580        C592   1.271       .  A
O581      Fe2238   2.066   1_554  S
O581        C594   1.272       .  A
C582        O587   1.282       .  A
C582        C746   1.511       .  S
C583        C829   1.470       .  S
O585        C588   1.269       .  A
O586        C588   1.264       .  A
C588       C1499   1.460       .  S
O589       C2258   1.276       .  A
O590        C592   1.268       .  A
C591       O2257   1.291   1_554  A
C591       C1589   1.496       .  S
C592        C859   1.472       .  S
O593       C2255   1.291       .  A
C594       O2253   1.276   1_554  A
C594        C839   1.473       .  S
Fe595       O611   2.060       .  S
Fe595       O601   2.079       .  S
Fe595       O608   2.052       .  S
Fe595       O600   2.010       .  S
Fe595       O606   1.928       .  S
Fe596       O599   2.050       .  S
Fe596       O603   2.054       .  S
Fe596       O607   2.098       .  S
Fe596       O612   2.063       .  S
Fe596       O606   1.935       .  S
Fe597       O615   2.136       .  S
Fe597       O602   2.086       .  S
Fe597       O609   2.097       .  S
Fe597       O598   2.108       .  S
Fe597       O606   1.971       .  S
O598        C605   1.274       .  A
O599        C613   1.272       .  A
O600        C605   1.258       .  A
O601        C604   1.274       .  A
O602        C614   1.272       .  A
O603        C616   1.269       .  A
C604        O609   1.280       .  A
C604        C749   1.508       .  S
C605        C799   1.455       .  S
O607        C610   1.275       .  A
O608        C610   1.265       .  A
C610        C759   1.476       .  S
O611        C616   1.274       .  A
O612        C614   1.267       .  A
C613        O615   1.287       .  A
C613       C1136   1.484       .  S
C614        C736   1.477       .  S
C616        C809   1.474       .  S
Fe617       O633   2.063       .  S
Fe617       O623   2.035       .  S
Fe617       O630   2.061       .  S
Fe617       O622   2.057       .  S
Fe617       O628   1.957       .  S
Fe618       O621   2.049       .  S
Fe618       O625   2.070       .  S
Fe618       O629   2.055       .  S
Fe618       O634   2.082       .  S
Fe618       O628   1.955       .  S
Fe619       O637   2.068       .  S
Fe619       O624   2.107       .  S
Fe619       O631   2.101       .  S
Fe619       O620   2.076       .  S
Fe619       O628   1.979       .  S
O620        C627   1.263       .  A
O621        C635   1.259       .  A
O622        C627   1.265       .  A
O623        C626   1.272       .  A
O624        C636   1.289       .  A
O625        C638   1.270       .  A
C626        O631   1.285       .  A
C626       C1179   1.457       .  S
C627        C726   1.493       .  S
O629        C632   1.267       .  A
O630        C632   1.271       .  A
C632       C1169   1.479       .  S
O633        C638   1.270       .  A
O634        C636   1.282       .  A
C635        O637   1.261       .  A
C635        C929   1.478       .  S
C636       C1319   1.484       .  S
C638        C879   1.480       .  S
Fe639       O655   2.078       .  S
Fe639       O645   2.035       .  S
Fe639       O652   2.069       .  S
Fe639       O644   2.062       .  S
Fe639       O650   1.976       .  S
Fe640       O643   2.060       .  S
Fe640       O647   2.082       .  S
Fe640       O651   2.028       .  S
Fe640       O656   2.073       .  S
Fe640       O650   1.953       .  S
Fe641       O659   2.077       .  S
Fe641       O646   2.091       .  S
Fe641       O653   2.062       .  S
Fe641       O642   2.100       .  S
Fe641       O650   1.957       .  S
O642        C649   1.275       .  A
O643        C657   1.265       .  A
O644        C649   1.276       .  A
O645        C648   1.260       .  A
O646        C658   1.278       .  A
O647        C660   1.274       .  A
C648        O653   1.270       .  A
C648       C1129   1.440       .  S
C649        C729   1.493       .  S
O651        C654   1.260       .  A
O652        C654   1.263       .  A
C654       C1119   1.472       .  S
O655        C660   1.276       .  A
O656        C658   1.275       .  A
C657        O659   1.271       .  A
C657        C716   1.484       .  S
C658       C1199   1.477       .  S
C660        C739   1.484       .  S
Fe661       O677   2.063       .  S
Fe661       O667   2.062       .  S
Fe661       O674   2.058       .  S
Fe661       O666   2.034       .  S
Fe661       O672   1.954       .  S
Fe662       O673   2.065       .  S
Fe662       O678   2.041       .  S
Fe662      O2329   2.084       .  S
Fe662      O2333   2.044       .  S
Fe662       O672   1.949       .  S
Fe663       O681   2.109       .  S
Fe663       O668   2.084       .  S
Fe663       O675   2.095       .  S
Fe663       O664   2.096       .  S
Fe663       O672   1.975       .  S
O664        C671   1.284       .  A
O665      Fe2326   2.082   1_554  S
O665       C2343   1.279       .  A
O666        C671   1.271       .  A
O667        C670   1.269       .  A
O668        C680   1.264       .  A
O669      Fe2326   2.042   1_554  S
O669        C682   1.268       .  A
C670        O675   1.268       .  A
C670        C706   1.507       .  S
C671       C1259   1.456       .  S
O673        C676   1.267       .  A
O674        C676   1.269       .  A
C676        C849   1.481       .  S
O677       C2346   1.273       .  A
O678        C680   1.257       .  A
C679        O681   1.289       .  A
C679       O2329   1.279       .  A
C679       C3073   1.487       .  S
C680       C1549   1.474       .  S
C682       O2341   1.273   1_554  A
C682       C1266   1.476       .  S
Fe683       O699   2.064       .  S
Fe683       O689   2.107       .  S
Fe683       O696   2.061       .  S
Fe683       O688   2.017       .  S
Fe683       O694   1.926       .  S
Fe684       O687   2.049       .  S
Fe684       O691   2.051       .  S
Fe684       O695   2.092       .  S
Fe684       O700   2.063       .  S
Fe684       O694   1.928       .  S
Fe685       O703   2.138       .  S
Fe685       O690   2.068       .  S
Fe685       O697   2.082       .  S
Fe685       O686   2.117       .  S
Fe685       O694   1.964       .  S
O686        C693   1.272       .  A
O687        C701   1.271       .  A
O688        C693   1.254       .  A
O689        C692   1.279       .  A
O690        C702   1.270       .  A
O691        C704   1.271       .  A
C692        O697   1.280       .  A
C692        C709   1.509       .  S
C693       C1209   1.462       .  S
O695        C698   1.273       .  A
O696        C698   1.266       .  A
C698        C719   1.471       .  S
O699        C704   1.276       .  A
O700        C702   1.267       .  A
C701        O703   1.286       .  A
C701        C959   1.488       .  S
C702        C779   1.469       .  S
C704       C1219   1.473       .  S
C705        C706   1.408       .  A
C705        C710   1.407       .  A
C705        H711   1.083       .  S
C706        C707   1.413       .  A
C707        C708   1.413       .  A
C707        H712   1.083       .  S
C708        C709   1.409       .  A
C708        H713   1.082       .  S
C709        C710   1.413       .  A
C710        H714   1.082       .  S
C715        C716   1.410       .  A
C715        C720   1.406       .  A
C715        H721   1.082       .  S
C716        C717   1.403       .  A
C717        C718   1.393       .  A
C717        H722   1.084       .  S
C718        C719   1.402       .  A
C718        H723   1.078       .  S
C719        C720   1.403       .  A
C720        H724   1.083       .  S
C725        C726   1.407       .  A
C725        C730   1.403       .  A
C725        H731   1.083       .  S
C726        C727   1.409       .  A
C727        C728   1.410       .  A
C727        H732   1.083       .  S
C728        C729   1.409       .  A
C728        H733   1.083       .  S
C729        C730   1.407       .  A
C730        H734   1.083       .  S
C735        C736   1.402       .  A
C735        C740   1.403       .  A
C735        H741   1.083       .  S
C736        C737   1.406       .  A
C737        C738   1.397       .  A
C737        H742   1.083       .  S
C738        C739   1.403       .  A
C738        H743   1.083       .  S
C739        C740   1.411       .  A
C740        H744   1.083       .  S
C745        C746   1.410       .  A
C745        C750   1.397   1_565  A
C745        H751   1.082       .  S
C746        C747   1.413       .  A
C747        C748   1.421   1_565  A
C747        H752   1.083       .  S
C748        C749   1.414       .  A
C748        H753   1.082       .  S
C749        C750   1.408       .  A
C750        H754   1.083       .  S
C755        C756   1.413       .  A
C755        C760   1.410       .  A
C755        H761   1.082       .  S
C756        C757   1.402       .  A
C757        C758   1.390       .  A
C757        H762   1.084       .  S
C758        C759   1.404       .  A
C758        H763   1.080       .  S
C759        C760   1.403       .  A
C760        H764   1.083       .  S
C765        C766   1.408       .  A
C765        C770   1.403       .  A
C765        H771   1.083       .  S
C766        C767   1.408       .  A
C767        C768   1.408       .  A
C767        H772   1.083       .  S
C768        C769   1.409       .  A
C768        H773   1.083       .  S
C769        C770   1.406       .  A
C770        H774   1.083       .  S
C775        C776   1.407       .  A
C775        C780   1.395       .  A
C775        H781   1.083       .  S
C776        C777   1.402       .  A
C777        C778   1.395       .  A
C777        H782   1.083       .  S
C778        C779   1.406       .  A
C778        H783   1.084       .  S
C779        C780   1.400       .  A
C780        H784   1.083       .  S
C785        C786   1.408       .  A
C785        C790   1.407       .  A
C785        H791   1.083       .  S
C786        C787   1.403       .  A
C787        C788   1.403       .  A
C787        H792   1.083       .  S
C788        C789   1.408       .  A
C788        H793   1.084       .  S
C789       C2190   1.485       .  S
C789        C790   1.405       .  A
C790       H2458   1.083       .  S
H794       C2454   1.083       .  S
C795        C796   1.391       .  A
C795        C800   1.387       .  A
C795        H801   1.083       .  S
C796        C797   1.409       .  A
C797        C798   1.396       .  A
C797       H2466   1.084       .  S
C798        C799   1.394       .  A
C798        H803   1.083       .  S
C799        C800   1.409       .  A
C800        H804   1.084       .  S
H802       C2461   1.084   1_554  S
C805        C806   1.415       .  A
C805        C810   1.397       .  A
C805        H811   1.080       .  S
C806        C807   1.392       .  A
C807        C808   1.391       .  A
C807        H812   1.084       .  S
C808        C809   1.413       .  A
C808        H813   1.083       .  S
C809        C810   1.396       .  A
C810        H814   1.083       .  S
C815        C816   1.409       .  A
C815        C820   1.399       .  A
C815        H821   1.081       .  S
C816        C817   1.396   1_565  A
C817        C818   1.402       .  A
C817        H822   1.083       .  S
C818        C819   1.412       .  A
C818        H823   1.082       .  S
C819        C820   1.397   1_545  A
C820        H824   1.083       .  S
C825        C826   1.412       .  A
C825        C830   1.404       .  A
C825        H831   1.084       .  S
C826        C827   1.394       .  A
C827        C828   1.385       .  A
C827        H832   1.083       .  S
C828        C829   1.409       .  A
C828        H833   1.083       .  S
C829        C830   1.398       .  A
C830        H834   1.082       .  S
C835        C836   1.396       .  A
C835        C840   1.395       .  A
C835        H841   1.083       .  S
C836        C837   1.412       .  A
C837        C838   1.395       .  A
C837        H842   1.081       .  S
C838        C839   1.396       .  A
C838        H843   1.083       .  S
C839        C840   1.411       .  A
C840        H844   1.083       .  S
C845        C846   1.404       .  A
C845        C850   1.406       .  A
C845        H851   1.083       .  S
C846        C847   1.402       .  A
C847        C848   1.388       .  A
C847        H852   1.083       .  S
C848        C849   1.403       .  A
C848        H853   1.083       .  S
C849        C850   1.410       .  A
C850        H854   1.082       .  S
C855        C856   1.402       .  A
C855        C860   1.394       .  A
C855        H861   1.083       .  S
C856        C857   1.409       .  A
C857        C858   1.401       .  A
C857        H862   1.083       .  S
C858        C859   1.402       .  A
C858        H863   1.083       .  S
C859        C860   1.405       .  A
C860        H864   1.084       .  S
C865        C866   1.397       .  A
C865        C870   1.400       .  A
C865        H871   1.083       .  S
C866       C2531   1.414   1_554  A
C867        C868   1.404       .  A
C867       C2530   1.414       .  A
C867        H872   1.083       .  S
C868        C869   1.398       .  A
C868        H873   1.083       .  S
C869       C2534   1.413       .  A
C870       C2533   1.413   1_554  A
C870        H874   1.084       .  S
C875        C876   1.401       .  A
C875        C880   1.391       .  A
C875        H881   1.083       .  S
C876        C877   1.409       .  A
C877        C878   1.405       .  A
C877        H882   1.083       .  S
C878        C879   1.406       .  A
C878        H883   1.083       .  S
C879        C880   1.406       .  A
C880        H884   1.083       .  S
C885        C886   1.402       .  A
C885        C890   1.395       .  A
C885        H891   1.083       .  S
C886        C887   1.405       .  A
C887        C888   1.394       .  A
C887        H892   1.083       .  S
C888        C889   1.401       .  A
C888        H893   1.083       .  S
C889        C890   1.405       .  A
C890        H894   1.083       .  S
C895        C896   1.407       .  A
C895        C900   1.399       .  A
C895        H901   1.083       .  S
C896        C897   1.401       .  A
C897        C898   1.394       .  A
C897        H902   1.083       .  S
C898        C899   1.407       .  A
C898        H903   1.083       .  S
C899        C900   1.403       .  A
C900        H904   1.083       .  S
C905        C906   1.407       .  A
C905        C910   1.404   1_565  A
C905        H911   1.083       .  S
C906        C907   1.410       .  A
C907        C908   1.408   1_565  A
C907        H912   1.083       .  S
C908        C909   1.407       .  A
C908        H913   1.083       .  S
C909        C910   1.408       .  A
C910        H914   1.083       .  S
C915        C916   1.402       .  A
C915        C920   1.392       .  A
C915        H921   1.083       .  S
C916        C917   1.409       .  A
C917        C918   1.404       .  A
C917        H922   1.083       .  S
C918        C919   1.405       .  A
C918        H923   1.083       .  S
C919        C920   1.406       .  A
C920        H924   1.083       .  S
C925        C926   1.403       .  A
C925        C930   1.402       .  A
C925        H931   1.083       .  S
C926        C927   1.405       .  A
C927        C928   1.396       .  A
C927        H932   1.083       .  S
C928        C929   1.403       .  A
C928        H933   1.083       .  S
C929        C930   1.407       .  A
C930        H934   1.083       .  S
C935        C936   1.412       .  A
C935        C940   1.418       .  A
C935        H941   1.083       .  S
C936        C937   1.412       .  A
C937        C938   1.398       .  A
C937        H942   1.082       .  S
C938        C939   1.404       .  A
C938        H943   1.083       .  S
C939        C940   1.413       .  A
C940        H944   1.082       .  S
C945        C946   1.402       .  A
C945        C950   1.395       .  A
C945        H951   1.078   1_554  S
C946        C947   1.403       .  A
C947        C948   1.402       .  A
C947        H952   1.083       .  S
C948        C949   1.407       .  A
C948        H953   1.083       .  S
C949        C950   1.403       .  A
C950        H954   1.083       .  S
C955        C956   1.407       .  A
C955        C960   1.407       .  A
C955        H961   1.083       .  S
C956        C957   1.404       .  A
C957        C958   1.403       .  A
C957        H962   1.083       .  S
C958        C959   1.408       .  A
C958        H963   1.083       .  S
C959        C960   1.406       .  A
C960        H964   1.083       .  S
C965        C966   1.405       .  A
C965        C970   1.392       .  A
C965        H971   1.083       .  S
C966        C967   1.402       .  A
C967        C968   1.399       .  A
C967        H972   1.083       .  S
C968        C969   1.406       .  A
C968        H973   1.084       .  S
C969        C970   1.399       .  A
C970        H974   1.084       .  S
C975        C976   1.402       .  A
C975        C980   1.395       .  A
C975        H981   1.083       .  S
C976        C977   1.411       .  A
C977        C978   1.391       .  A
C977        H982   1.083       .  S
C978        C979   1.396       .  A
C978        H983   1.084       .  S
C979        C980   1.405       .  A
C980        H984   1.084       .  S
C985        C986   1.404       .  A
C985        C990   1.394       .  A
C985        H991   1.083       .  S
C986        C987   1.409       .  A
C987        C988   1.406       .  A
C987        H992   1.083       .  S
C988        C989   1.406       .  A
C988        H993   1.083       .  S
C989        C990   1.404       .  A
C990        H994   1.083       .  S
C995        C996   1.410       .  A
C995       C1000   1.415       .  A
C995       H1001   1.083       .  S
C996       C2661   1.407       .  A
C997        C998   1.403   1_556  A
C997       C2660   1.407       .  A
C997       H1002   1.083       .  S
C998        C999   1.406       .  A
C998       H1003   1.084       .  S
C999       C2664   1.411       .  A
C1000      C2663   1.411       .  A
C1000      H1004   1.083       .  S
C1005      C1006   1.406       .  A
C1005      C1010   1.409       .  A
C1005      H1011   1.083       .  S
C1006      C1007   1.410       .  A
C1007      C1008   1.408       .  A
C1007      H1012   1.084       .  S
C1008      C1009   1.405       .  A
C1008      H1013   1.083       .  S
C1009      C1010   1.410       .  A
C1010      H1014   1.084       .  S
C1015      C1016   1.398       .  A
C1015      C1020   1.397       .  A
C1015      H2685   1.084       .  S
C1016      C1017   1.405       .  A
C1017      C1018   1.397       .  A
C1017      H1022   1.083       .  S
C1018      C1019   1.403       .  A
C1018      H1023   1.083       .  S
C1019      C1020   1.411       .  A
C1020      H1024   1.083       .  S
H1021      C2679   1.084       .  S
C1025      C1026   1.402       .  A
C1025      C1030   1.401       .  A
C1025      H1031   1.083       .  S
C1026      C1027   1.406       .  A
C1027      C1028   1.393       .  A
C1027      H1032   1.083       .  S
C1028      C1029   1.399       .  A
C1028      H1033   1.084       .  S
C1029      C1030   1.408       .  A
C1030      H1034   1.084       .  S
C1035      C1036   1.405       .  A
C1035      C1040   1.394       .  A
C1035      H1041   1.083   1_655  S
C1036      C1037   1.404       .  A
C1037      C1038   1.402       .  A
C1037      H1042   1.083       .  S
C1038      C1039   1.407       .  A
C1038      H1043   1.084       .  S
C1039      C1040   1.401       .  A
C1040      H1044   1.084       .  S
C1045      C1046   1.408       .  A
C1045      C1050   1.397       .  A
C1045      H1051   1.084       .  S
C1046      C1047   1.395       .  A
C1047      C1048   1.393       .  A
C1047      H1052   1.084       .  S
C1048      C1049   1.411       .  A
C1048      H1053   1.083       .  S
C1049      C1050   1.401       .  A
C1050      H2718   1.083       .  S
H1054      C2714   1.083       .  S
C1055      C1056   1.405       .  A
C1055      C1060   1.404       .  A
C1055      H1061   1.084       .  S
C1056      C1948   1.477       .  S
C1056      C1057   1.405       .  A
C1057      C1058   1.403       .  A
C1057      H1062   1.083       .  S
C1058      C1059   1.404       .  A
C1058      H1063   1.084       .  S
C1059      C1060   1.405       .  A
C1060      H1064   1.083       .  S
C1065      C1066   1.403       .  A
C1065      C1070   1.394       .  A
C1065      H1071   1.083       .  S
C1066      C1067   1.408       .  A
C1067      C1068   1.398       .  A
C1067      H1072   1.083       .  S
C1068      C1069   1.401       .  A
C1068      H1073   1.084       .  S
C1069      C1070   1.403       .  A
C1070      H1074   1.083       .  S
C1075      C1076   1.410       .  A
C1075      C1080   1.410       .  A
C1075      H1081   1.083       .  S
C1076      C1077   1.407       .  A
C1077      C1078   1.405       .  A
C1077      H1082   1.083       .  S
C1078      C1079   1.408   1_545  A
C1078      H1083   1.083   1_545  S
C1079      C1080   1.408   1_565  A
C1080      H1084   1.083   1_545  S
C1085      C1086   1.402       .  A
C1085      C1090   1.398       .  A
C1085      H1091   1.083       .  S
C1086      C1087   1.413       .  A
C1087      C1088   1.397       .  A
C1087      H1092   1.083       .  S
C1088      C1089   1.397       .  A
C1088      H1093   1.084       .  S
C1089      C1090   1.409       .  A
C1090      H1094   1.084       .  S
C1095      C1096   1.406       .  A
C1095      C1100   1.401       .  A
C1095      H1101   1.084       .  S
C1096      C1097   1.400       .  A
C1097      C1098   1.392       .  A
C1097      H1102   1.084       .  S
C1098      C1099   1.405       .  A
C1098      H1103   1.083   1_455  S
C1099      C1100   1.404       .  A
C1100      H1104   1.083       .  S
C1105      C1106   1.408       .  A
C1105      C1110   1.402       .  A
C1105      H1111   1.083       .  S
C1106      C1107   1.402       .  A
C1107      C1108   1.394       .  A
C1107      H1112   1.084       .  S
C1108      C1109   1.406       .  A
C1108      H1113   1.083       .  S
C1109      C1110   1.403       .  A
C1110      H1114   1.084       .  S
C1115      C1116   1.400       .  A
C1115      C1120   1.393       .  A
C1115      H1121   1.085       .  S
C1116      C1117   1.405       .  A
C1117      C1118   1.398       .  A
C1117      H1122   1.081       .  S
C1118      C1119   1.403       .  A
C1118      H1123   1.085       .  S
C1119      C1120   1.405       .  A
C1120      H1124   1.081       .  S
C1125      C1126   1.403       .  A
C1125      C1130   1.394       .  A
C1125      H1131   1.083       .  S
C1126      C1127   1.410       .  A
C1127      C1128   1.384       .  A
C1127      H1132   1.083       .  S
C1128      C1129   1.393       .  A
C1128      H1133   1.085       .  S
C1129      C1130   1.403       .  A
C1130      H1134   1.084       .  S
C1135      C1136   1.407       .  A
C1135      C1140   1.404       .  A
C1135      H1141   1.083       .  S
C1136      C1137   1.406       .  A
C1137      C1138   1.406       .  A
C1137      H1142   1.083       .  S
C1138      C1139   1.406       .  A
C1138      H1143   1.083       .  S
C1139      C1140   1.404       .  A
C1140      H1144   1.083       .  S
C1145      C1146   1.407       .  A
C1145      C1150   1.403       .  A
C1145      H1151   1.083       .  S
C1146      C1147   1.402       .  A
C1147      C1148   1.394       .  A
C1147      H1152   1.083       .  S
C1148      C1149   1.407       .  A
C1148      H1153   1.083       .  S
C1149      C1150   1.406       .  A
C1150      H1154   1.083       .  S
C1155      C1156   1.405       .  A
C1155      C1160   1.408       .  A
C1155      H1161   1.083       .  S
C1156      C1157   1.409       .  A
C1157      C1158   1.407       .  A
C1157      H1162   1.083       .  S
C1158      C1159   1.405       .  A
C1158      H1163   1.083       .  S
C1159      C1160   1.410       .  A
C1160      H1164   1.083       .  S
C1165      C1166   1.407       .  A
C1165      C1170   1.396       .  A
C1165      H1171   1.084       .  S
C1166      C1167   1.398       .  A
C1167      C1168   1.397       .  A
C1167      H1172   1.084       .  S
C1168      C1169   1.412       .  A
C1168      H1173   1.083       .  S
C1169      C1170   1.402       .  A
C1170      H1174   1.083       .  S
C1175      C1176   1.404       .  A
C1175      C1180   1.403       .  A
C1175      H1181   1.083       .  S
C1176      C1177   1.405       .  A
C1177      C1178   1.393       .  A
C1177      H1182   1.083       .  S
C1178      C1179   1.400       .  A
C1178      H1183   1.084       .  S
C1179      C1180   1.408       .  A
C1180      H1184   1.083       .  S
C1185      C1186   1.406       .  A
C1185      C1190   1.402       .  A
C1185      H1191   1.087       .  S
C1186      C2851   1.409       .  A
C1187      C1188   1.413   1_556  A
C1187      C2850   1.409       .  A
C1187      H1192   1.082       .  S
C1188      C1189   1.411       .  A
C1188      H1193   1.085       .  S
C1189      C2854   1.407       .  A
C1190      C2853   1.407       .  A
C1190      H1194   1.081       .  S
C1195      C1196   1.403       .  A
C1195      C1200   1.402       .  A
C1195      H1201   1.083       .  S
C1196      C1882   1.475       .  S
C1196      C1197   1.407       .  A
C1197      C1198   1.402       .  A
C1197      H1202   1.084       .  S
C1198      C1199   1.403       .  A
C1198      H1203   1.083       .  S
C1199      C1200   1.405       .  A
C1200      H1204   1.084       .  S
C1205      C1206   1.392       .  A
C1205      C1210   1.384       .  A
C1205      H1211   1.084       .  S
C1206      C1207   1.410       .  A
C1207      C1208   1.401       .  A
C1207      H2876   1.084       .  S
C1208      C1209   1.397       .  A
C1208      H1213   1.083       .  S
C1209      C1210   1.408       .  A
C1210      H1214   1.084       .  S
H1212      C2871   1.084       .  S
C1215      C1216   1.413       .  A
C1215      C1220   1.400       .  A
C1215      H1221   1.083       .  S
C1216      C1217   1.391       .  A
C1217      C1218   1.387       .  A
C1217      H1222   1.084       .  S
C1218      C1219   1.412       .  A
C1218      H1223   1.082       .  S
C1219      C1220   1.398       .  A
C1220      H1224   1.083       .  S
C1225      C1226   1.408       .  A
C1225      C1230   1.404       .  A
C1225      H1231   1.083       .  S
C1226      C1227   1.405       .  A
C1227      C1228   1.403       .  A
C1227      H1232   1.083       .  S
C1228      C1229   1.410       .  A
C1228      H1233   1.082       .  S
C1229      C1230   1.407       .  A
C1230      H1234   1.083       .  S
C1235      C1236   1.403       .  A
C1235      C1240   1.399       .  A
C1235      H1241   1.084       .  S
C1236      C1237   1.402       .  A
C1237      C1238   1.393       .  A
C1237      H2906   1.083       .  S
C1238      C1239   1.404       .  A
C1238      H2907   1.084       .  S
C1239      C1240   1.405       .  A
C1240      H1244   1.083       .  S
H1242      C2901   1.083       .  S
H1243      C2902   1.084       .  S
C1245      C1246   1.406       .  A
C1245      C1250   1.400       .  A
C1245      H1251   1.084       .  S
C1246      C1247   1.402       .  A
C1247      C1248   1.399       .  A
C1247      H1252   1.084       .  S
C1248      C1249   1.405       .  A
C1248      H1253   1.084       .  S
C1249      C1250   1.401       .  A
C1250      H1254   1.083       .  S
C1255      C1256   1.406       .  A
C1255      C1260   1.394       .  A
C1255      H1261   1.083       .  S
C1256      C1257   1.401       .  A
C1257      C1258   1.400       .  A
C1257      H1262   1.083       .  S
C1258      C1259   1.409       .  A
C1258      H1263   1.084       .  S
C1259      C1260   1.399       .  A
C1260      H1264   1.084       .  S
C1265      C1266   1.403       .  A
C1265      C1270   1.395       .  A
C1265      H1271   1.083       .  S
C1266      C1267   1.410       .  A
C1267      C1268   1.394       .  A
C1267      H1272   1.083       .  S
C1268      C1269   1.397       .  A
C1268      H1273   1.084       .  S
C1269      C1270   1.404       .  A
C1270      H1274   1.084       .  S
C1275      C1276   1.407       .  A
C1275      C1280   1.397       .  A
C1275      H1281   1.083       .  S
C1276      C1277   1.406       .  A
C1277      C1278   1.408       .  A
C1277      H1282   1.083       .  S
C1278      C1279   1.409       .  A
C1278      H1283   1.083       .  S
C1279      C1280   1.403       .  A
C1280      H1284   1.083       .  S
C1285      C1286   1.404       .  A
C1285      C1290   1.407       .  A
C1285      H1291   1.083       .  S
C1286      C1287   1.410       .  A
C1287      C1288   1.405       .  A
C1287      H1292   1.084       .  S
C1288      C1289   1.403       .  A
C1288      H1293   1.083       .  S
C1289      C1290   1.409       .  A
C1290      H1294   1.083       .  S
C1295      C1296   1.408       .  A
C1295      C1300   1.384   1_455  A
C1295      H1301   1.084   1_455  S
C1296      C1297   1.400       .  A
C1297      C1298   1.403       .  A
C1297      H1302   1.083       .  S
C1298      C1299   1.411   1_455  A
C1298      H1303   1.083       .  S
C1299      C1300   1.395       .  A
C1300      H1304   1.084       .  S
C1305      C1306   1.409       .  A
C1305      C1310   1.388       .  A
C1305      H1311   1.079       .  S
C1306      C1307   1.398       .  A
C1307      C1308   1.401       .  A
C1307      H1312   1.083       .  S
C1308      C1309   1.414       .  A
C1308      H1313   1.084       .  S
C1309      C1310   1.391       .  A
C1310      H1314   1.084       .  S
C1315      C1316   1.406       .  A
C1315      C1320   1.410       .  A
C1315      H1321   1.082       .  S
C1316      C1816   1.481       .  S
C1316      C1317   1.405       .  A
C1317      C1318   1.400       .  A
C1317      H1322   1.084       .  S
C1318      C1319   1.405       .  A
C1318      H1323   1.083       .  S
C1319      C1320   1.407       .  A
C1320      H1324   1.084       .  S
C1325      C1326   1.402   1_455  A
C1325      C1330   1.393       .  A
C1325      H2995   1.083       .  S
C1326      C1327   1.410   1_655  A
C1327      C1328   1.395       .  A
C1327      H1332   1.083   1_455  S
C1328      C1329   1.398       .  A
C1328      H1333   1.084       .  S
C1329      C1330   1.405       .  A
C1330      H1334   1.084       .  S
H1331      C2989   1.083       .  S
C1335      C1336   1.405       .  A
C1335      C1340   1.400       .  A
C1335      H1341   1.084       .  S
C1336      C1337   1.401       .  A
C1337      C1338   1.390       .  A
C1337      H1342   1.084       .  S
C1338      C1339   1.404       .  A
C1338      H1343   1.083   1_655  S
C1339      C1340   1.404       .  A
C1340      H1344   1.083       .  S
C1345      C1346   1.401       .  A
C1345      C1350   1.395       .  A
C1345      H1351   1.083       .  S
C1346      C1347   1.405       .  A
C1347      C1348   1.396       .  A
C1347      H1352   1.083       .  S
C1348      C1349   1.403       .  A
C1348      H1353   1.083       .  S
C1349      C1350   1.406       .  A
C1350      H1354   1.083       .  S
C1355      C1356   1.407       .  A
C1355      C1360   1.403       .  A
C1355      H1361   1.083       .  S
C1356      C1357   1.406       .  A
C1357      C1358   1.408       .  A
C1357      H1362   1.083       .  S
C1358      C1359   1.411       .  A
C1358      H1363   1.083       .  S
C1359      C1360   1.408       .  A
C1360      H1364   1.083       .  S
C1365      C1366   1.406       .  A
C1365      C1370   1.394       .  A
C1365      H1371   1.083       .  S
C1366      C1367   1.406       .  A
C1367      C1368   1.403       .  A
C1367      H3036   1.083       .  S
C1368      C1369   1.407       .  A
C1368      H3037   1.083       .  S
C1369      C1370   1.403       .  A
C1370      H1374   1.083       .  S
H1372      C3031   1.083       .  S
H1373      C3032   1.083       .  S
C1375      C1376   1.404       .  A
C1375      C1380   1.393       .  A
C1375      H1381   1.084       .  S
C1376      C1377   1.407       .  A
C1377      C1378   1.399       .  A
C1377      H1382   1.083       .  S
C1378      C1379   1.402       .  A
C1378      H1383   1.084       .  S
C1379      C1380   1.402       .  A
C1380      H1384   1.083       .  S
C1385      C1386   1.406       .  A
C1385      C1390   1.405       .  A
C1385      H1391   1.083       .  S
C1386      C1387   1.405       .  A
C1387      C1388   1.406       .  A
C1387      H1392   1.084       .  S
C1388      C1389   1.408       .  A
C1388      H1393   1.083       .  S
C1389      C2035   1.486       .  S
C1389      C1390   1.406       .  A
C1390      H1394   1.084       .  S
C1395      C1396   1.406       .  A
C1395      C1400   1.405       .  A
C1395      H1401   1.083       .  S
C1396      C1397   1.407       .  A
C1397      C1398   1.397       .  A
C1397      H1402   1.083       .  S
C1398      C1399   1.404       .  A
C1398      H1403   1.083       .  S
C1399      C1400   1.409       .  A
C1400      H1404   1.083       .  S
C1405      C1406   1.406       .  A
C1405      C1410   1.404       .  A
C1405      H1411   1.084       .  S
C1406      C1407   1.407       .  A
C1407      C1408   1.411       .  A
C1407      H1412   1.083       .  S
C1408      C1409   1.408       .  A
C1408      H1413   1.083       .  S
C1409      C2343   1.486       .  S
C1409      C1410   1.405       .  A
C1410      H1414   1.083       .  S
C1415      C1416   1.404       .  A
C1415      C1420   1.395       .  A
C1415      H1421   1.083       .  S
C1416      C1417   1.403       .  A
C1417      C1418   1.392       .  A
C1417      H1422   1.084       .  S
C1418      C1419   1.403       .  A
C1418      H1423   1.083       .  S
C1419      C1420   1.402       .  A
C1420      H1424   1.084       .  S
C1425      C1426   1.412       .  A
C1425      C1430   1.410       .  A
C1425      H1431   1.083       .  S
C1426      C1427   1.409       .  A
C1427      C1428   1.408       .  A
C1427      H1432   1.083       .  S
C1428      C1429   1.408       .  A
C1428      H1433   1.084       .  S
C1429      C1430   1.406       .  A
C1430      H1434   1.083       .  S
C1435      C1436   1.404       .  A
C1435      C1440   1.393       .  A
C1435      H1441   1.083       .  S
C1436      C1437   1.409       .  A
C1437      C1438   1.406       .  A
C1437      H1442   1.083       .  S
C1438      C1439   1.405       .  A
C1438      H1443   1.083       .  S
C1439      C1440   1.404       .  A
C1440      H1444   1.084       .  S
C1445      C1446   1.405       .  A
C1445      C1450   1.404       .  A
C1445      H1451   1.083       .  S
C1446      C1447   1.403       .  A
C1447      C1448   1.391       .  A
C1447      H1452   1.083       .  S
C1448      C1449   1.404       .  A
C1448      H1453   1.083       .  S
C1449      C1450   1.408       .  A
C1450      H1454   1.083       .  S
C1455      C1456   1.406       .  A
C1455      C1460   1.404       .  A
C1455      H1461   1.084       .  S
C1456      C1457   1.404       .  A
C1457      C1458   1.404       .  A
C1457      H1462   1.083       .  S
C1458      C1459   1.408       .  A
C1458      H1463   1.084       .  S
C1459      C1460   1.405       .  A
C1460      H1464   1.083       .  S
C1465      C1466   1.406       .  A
C1465      C1470   1.400       .  A
C1465      H1471   1.083       .  S
C1466      C1467   1.399       .  A
C1467      C1468   1.391       .  A
C1467      H1472   1.084       .  S
C1468      C1469   1.405       .  A
C1468      H1473   1.083       .  S
C1469      C1470   1.403       .  A
C1470      H1474   1.083       .  S
C1475      C1476   1.408       .  A
C1475      C1480   1.393       .  A
C1475      H1481   1.083       .  S
C1476      C1477   1.396       .  A
C1477      C1478   1.394       .  A
C1477      H1482   1.084       .  S
C1478      C1479   1.413       .  A
C1478      H1483   1.083       .  S
C1479      C1480   1.399       .  A
C1480      H1484   1.083       .  S
C1485      C1486   1.405       .  A
C1485      C1490   1.396       .  A
C1485      H1491   1.082       .  S
C1486      C1487   1.402       .  A
C1487      C1488   1.398       .  A
C1487      H1492   1.083       .  S
C1488      C1489   1.409       .  A
C1488      H1493   1.083       .  S
C1489      C1490   1.402       .  A
C1490      H1494   1.083       .  S
C1495      C1496   1.402       .  A
C1495      C1500   1.393       .  A
C1495      H1501   1.083       .  S
C1496      C1497   1.405       .  A
C1497      C1498   1.400       .  A
C1497      H1502   1.084       .  S
C1498      C1499   1.403       .  A
C1498      H1503   1.083       .  S
C1499      C1500   1.400       .  A
C1500      H1504   1.083       .  S
C1505      C1506   1.407       .  A
C1505      C1510   1.403       .  A
C1505      H1511   1.083       .  S
C1506      C1507   1.401       .  A
C1507      C1508   1.402       .  A
C1507      H1512   1.083       .  S
C1508      C1509   1.410       .  A
C1508      H1513   1.084       .  S
C1509      C1510   1.402       .  A
C1510      H1514   1.083       .  S
C1515      C1516   1.405       .  A
C1515      C1520   1.392       .  A
C1515      H1521   1.083       .  S
C1516      C1517   1.405       .  A
C1517      C1518   1.400       .  A
C1517      H1522   1.083       .  S
C1518      C1519   1.404       .  A
C1518      H1523   1.083       .  S
C1519      C1520   1.401       .  A
C1520      H1524   1.084       .  S
C1525      C1526   1.395       .  A
C1525      C1530   1.390       .  A
C1525      H1531   1.084       .  S
C1526      C1527   1.405       .  A
C1527      C1528   1.390       .  A
C1527      H1532   1.083       .  S
C1528      C1529   1.399       .  A
C1528      H1533   1.083       .  S
C1529      C1530   1.409       .  A
C1530      H1534   1.083       .  S
C1535      C1540   1.403       .  A
C1535      C3200   1.413   1_554  A
C1535      H1541   1.083       .  S
C1536      C1537   1.398       .  A
C1536      C3199   1.413       .  A
C1537      C1538   1.401       .  A
C1537      H1542   1.083       .  S
C1538      C3203   1.413       .  A
C1538      H1543   1.083       .  S
C1539      C1540   1.399       .  A
C1539      C3202   1.413   1_554  A
C1540      H1544   1.083       .  S
C1545      C1546   1.406       .  A
C1545      C1550   1.402       .  A
C1545      H1551   1.083       .  S
C1546      C1547   1.405       .  A
C1547      C1548   1.394       .  A
C1547      H1552   1.083       .  S
C1548      C1549   1.402       .  A
C1548      H1553   1.084       .  S
C1549      C1550   1.405       .  A
C1550      H1554   1.083       .  S
C1555      C1556   1.402       .  A
C1555      C1560   1.399       .  A
C1555      H1561   1.084       .  S
C1556      C1557   1.404       .  A
C1557      C1558   1.392       .  A
C1557      H1562   1.083       .  S
C1558      C1559   1.403       .  A
C1558      H1563   1.084       .  S
C1559      C1560   1.406       .  A
C1560      H1564   1.082       .  S
C1565      C1566   1.406       .  A
C1565      C1570   1.401       .  A
C1565      H1571   1.084       .  S
C1566      C1567   1.401       .  A
C1567      C1568   1.394       .  A
C1567      H1572   1.084       .  S
C1568      C1569   1.406       .  A
C1568      H1573   1.083       .  S
C1569      C1570   1.404       .  A
C1570      H1574   1.083       .  S
C1575      C1576   1.401       .  A
C1575      C1580   1.391       .  A
C1575      H1581   1.083       .  S
C1576      C1577   1.411       .  A
C1577      C1578   1.393       .  A
C1577      H1582   1.083       .  S
C1578      C1579   1.396       .  A
C1578      H1583   1.083       .  S
C1579      C1580   1.405       .  A
C1580      H1584   1.084       .  S
C1585      C1586   1.405       .  A
C1585      C1590   1.404       .  A
C1585      H1591   1.083       .  S
C1586      C1587   1.408       .  A
C1587      C1588   1.413       .  A
C1587      H1592   1.083       .  S
C1588      C1589   1.409       .  A
C1588      H1593   1.083       .  S
C1589      C1590   1.409       .  A
C1590      H1594   1.083       .  S
C1595      C1596   1.407       .  A
C1595      C1600   1.403       .  A
C1595      H1601   1.083       .  S
C1596      C1597   1.404       .  A
C1597      C1598   1.394       .  A
C1597      H1602   1.083       .  S
C1598      C1599   1.404       .  A
C1598      H1603   1.083       .  S
C1599      C1600   1.406       .  A
C1600      H1604   1.083       .  S
C1605      C1606   1.402       .  A
C1605      C1610   1.396       .  A
C1605      H1611   1.084       .  S
C1606      C1607   1.405       .  A
C1607      C1608   1.395       .  A
C1607      H1612   1.083       .  S
C1608      C1609   1.402       .  A
C1608      H1613   1.084       .  S
C1609      C1610   1.406       .  A
C1610      H1614   1.083       .  S
C1615      C1616   1.406       .  A
C1615      C1620   1.405       .  A
C1615      H1621   1.084       .  S
C1616      C1617   1.406       .  A
C1617      C1618   1.408       .  A
C1617      H1622   1.083       .  S
C1618      C1619   1.407       .  A
C1618      H1623   1.084       .  S
C1619      C2079   1.484       .  S
C1619      C1620   1.405       .  A
C1620      H1624   1.083       .  S
C1625      C1626   1.405       .  A
C1625      C1630   1.399       .  A
C1625      H1631   1.084       .  S
C1626      C1627   1.400       .  A
C1627      C1628   1.392       .  A
C1627      H1632   1.084       .  S
C1628      C1629   1.404       .  A
C1628      H1633   1.083       .  S
C1629      C1630   1.404       .  A
C1630      H1634   1.083       .  S
C1635      C1636   1.410       .  A
C1635      C1640   1.391       .  A
C1635      H1641   1.083       .  S
C1636      C1637   1.399       .  A
C1637      C1638   1.394       .  A
C1637      H1642   1.083       .  S
C1638      C1639   1.409       .  A
C1638      H1643   1.084       .  S
C1639      C1640   1.395       .  A
C1640      H1644   1.083       .  S
C1645      C1646   1.410       .  A
C1645      C1650   1.412       .  A
C1645      H1651   1.083       .  S
C1646      C1647   1.408       .  A
C1647      C1648   1.407       .  A
C1647      H1652   1.083       .  S
C1648      C1649   1.408       .  A
C1648      H1653   1.084       .  S
C1649      C1650   1.410       .  A
C1650      H1654   1.082       .  S
C1655      C1656   1.409       .  A
C1655      C1660   1.405       .  A
C1655      H1661   1.083       .  S
C1656      C1657   1.408       .  A
C1657      C1658   1.398       .  A
C1657      H1662   1.082       .  S
C1658      C1659   1.403       .  A
C1658      H1663   1.084       .  S
C1659      C1660   1.407       .  A
C1660      H1664   1.083       .  S
Fe1665     O1681   2.064       .  S
Fe1665     O1671   2.076       .  S
Fe1665     O1678   2.072       .  S
Fe1665     O1670   2.034       .  S
Fe1665     O1676   1.958       .  S
Fe1666     O1669   2.086       .  S
Fe1666     O1673   2.043       .  S
Fe1666     O1677   2.071       .  S
Fe1666     O1682   2.051       .  S
Fe1666     O1676   1.954       .  S
Fe1667     O1685   2.102       .  S
Fe1667     O1672   2.065       .  S
Fe1667     O1679   2.084       .  S
Fe1667     O1668   2.086       .  S
Fe1667     O1676   1.975       .  S
O1668      C1675   1.281       .  A
O1669      C1683   1.279       .  A
O1670      C1675   1.273       .  A
O1671      C1674   1.270       .  A
O1672      C1684   1.262       .  A
O1673      C1686   1.270       .  A
C1674      O1679   1.267       .  A
C1674      C3310   1.504       .  S
C1675      C3290   1.450       .  S
O1677      C1680   1.268       .  A
O1678      C1680   1.269       .  A
C1680      C3320   1.492       .  S
O1681      C1686   1.274       .  A
O1682      C1684   1.259       .  A
C1683      O1685   1.286       .  A
C1683      C3280   1.484       .  S
C1684      C3270   1.470       .  S
C1686      C3300   1.470       .  S
Fe1687     O1703   2.060       .  S
Fe1687     O1693   2.062       .  S
Fe1687     O1700   2.066       .  S
Fe1687     O1692   2.041       .  S
Fe1687     O1698   1.949       .  S
Fe1688     O1691   2.094       .  S
Fe1688     O1695   2.036       .  S
Fe1688     O1699   2.065       .  S
Fe1688     O1704   2.035       .  S
Fe1688     O1698   1.940       .  S
Fe1689     O1707   2.111       .  S
Fe1689     O1694   2.081       .  S
Fe1689     O1701   2.096       .  S
Fe1689     O1690   2.098       .  S
Fe1689     O1698   1.970       .  S
O1690      C1697   1.287       .  A
O1691      C1705   1.282       .  A
O1692      C1697   1.273       .  A
O1693      C1696   1.268       .  A
O1694      C1706   1.262       .  A
O1695      C1708   1.267       .  A
C1696      O1701   1.267       .  A
C1696      C3313   1.503       .  S
C1697      C3230   1.456       .  S
O1699      C1702   1.267       .  A
O1700      C1702   1.269       .  A
C1702      C3260   1.482       .  S
O1703      C1708   1.274       .  A
O1704      C1706   1.253       .  A
C1705      O1707   1.291       .  A
C1705      C3250   1.489       .  S
C1706      C3223   1.472       .  S
C1708      C3240   1.471       .  S
Fe1709     O1725   2.077       .  S
Fe1709     O1715   2.041       .  S
Fe1709     O1722   2.078       .  S
Fe1709     O1714   2.071       .  S
Fe1709     O1720   1.985       .  S
Fe1710     O1713   2.052       .  S
Fe1710     O1717   2.073       .  S
Fe1710     O1721   2.020       .  S
Fe1710     O1726   2.057       .  S
Fe1710     O1720   1.945       .  S
Fe1711     O1729   2.069       .  S
Fe1711     O1716   2.101       .  S
Fe1711     O1712   2.085       .  S
Fe1711     O1720   1.950       .  S
O1712      C1719   1.274       .  A
O1713      C1727   1.263       .  A
O1714      C1719   1.277       .  A
O1716      C1728   1.280       .  A
O1717      C1730   1.276       .  A
C1718      O1723   1.270       .  A
C1718      C3190   1.451       .  S
C1719      C3200   1.481       .  S
O1721      C1724   1.254       .  A
O1722      C1724   1.259       .  A
C1724      C3180   1.476       .  S
O1725      C1730   1.277       .  A
O1726      C1728   1.272       .  A
C1727      O1729   1.269       .  A
C1727      C3160   1.472       .  S
C1728      C3170   1.478       .  S
C1730      C3210   1.477       .  S
Fe1731     O1747   2.069       .  S
Fe1731     O1737   2.041       .  S
Fe1731     O1744   2.077       .  S
Fe1731     O1736   2.070       .  S
Fe1731     O1742   1.969       .  S
Fe1732     O1735   2.063       .  S
Fe1732     O1739   2.081       .  S
Fe1732     O1743   2.028       .  S
Fe1732     O1748   2.073       .  S
Fe1732     O1742   1.935       .  S
Fe1733     O1751   2.067       .  S
Fe1733     O1738   2.095       .  S
Fe1733     O1734   2.089       .  S
Fe1733     O1742   1.942       .  S
O1734      C1741   1.275       .  A
O1735      C1749   1.266       .  A
O1736      C1741   1.277       .  A
O1738      C1750   1.282       .  A
O1739      C1752   1.276       .  A
C1740      O1745   1.275   1_556  A
C1740      C3140   1.459       .  S
C1741      C3203   1.483       .  S
O1743      C1746   1.259       .  A
O1744      C1746   1.263       .  A
C1746      C3133   1.471       .  S
O1747      C1752   1.276       .  A
O1748      C1750   1.276       .  A
C1749      O1751   1.268       .  A
C1749      C3110   1.476       .  S
C1750      C3120   1.481       .  S
C1752      C3150   1.472       .  S
Fe1753     O1769   2.063       .  S
Fe1753     O1759   2.062       .  S
Fe1753     O1766   2.064       .  S
Fe1753     O1758   2.042       .  S
Fe1753     O1764   1.948       .  S
Fe1754     O1757   2.091       .  S
Fe1754     O1761   2.029       .  S
Fe1754     O1765   2.074       .  S
Fe1754     O1770   2.037       .  S
Fe1754     O1764   1.939       .  S
Fe1755     O1773   2.106       .  S
Fe1755     O1760   2.081       .  S
Fe1755     O1767   2.094       .  S
Fe1755     O1756   2.090       .  S
Fe1755     O1764   1.962       .  S
O1756      C1763   1.281       .  A
O1757      C1771   1.279       .  A
O1758      C1763   1.270       .  A
O1759      C1762   1.270       .  A
O1760      C1772   1.265       .  A
O1761      C1774   1.267       .  A
C1762      O1767   1.270       .  A
C1762      C3090   1.503       .  S
C1763      C3183   1.453       .  S
O1765      C1768   1.269       .  A
O1766      C1768   1.270       .  A
C1768      C3100   1.484       .  S
O1769      C1774   1.273       .  A
O1770      C1772   1.258       .  A
C1771      O1773   1.287       .  A
C1771      C3070   1.488       .  S
C1772      C3080   1.468       .  S
C1774      C3193   1.463       .  S
Fe1775     O1791   2.069       .  S
Fe1775     O1781   2.070       .  S
Fe1775     O1788   2.066       .  S
Fe1775     O1780   2.036       .  S
Fe1775     O1786   1.956       .  S
Fe1776     O1779   2.093       .  S
Fe1776     O1783   2.032       .  S
Fe1776     O1787   2.076       .  S
Fe1776     O1792   2.040       .  S
Fe1776     O1786   1.948       .  S
Fe1777     O1795   2.097       .  S
Fe1777     O1782   2.073       .  S
Fe1777     O1789   2.078       .  S
Fe1777     O1778   2.090       .  S
Fe1777     O1786   1.973       .  S
O1778      C1785   1.284       .  A
O1779      C1793   1.282       .  A
O1780      C1785   1.273       .  A
O1781      C1784   1.269       .  A
O1782      C1794   1.262       .  A
O1783      C1796   1.266       .  A
C1784      O1789   1.264       .  A
C1784      C3093   1.495       .  S
C1785      C3130   1.451       .  S
O1787      C1790   1.269       .  A
O1788      C1790   1.268       .  A
C1790      C3060   1.488       .  S
O1791      C1796   1.275       .  A
O1792      C1794   1.256       .  A
C1793      O1795   1.286       .  A
C1793      C3050   1.484       .  S
C1794      C3040   1.476       .  S
C1796      C3143   1.473       .  S
Fe1797     O1813   2.060       .  S
Fe1797     O1803   2.035       .  S
Fe1797     O1810   2.058       .  S
Fe1797     O1802   2.056       .  S
Fe1797     O1808   1.954       .  S
Fe1798     O1801   2.049       .  S
Fe1798     O1805   2.066       .  S
Fe1798     O1808   1.949       .  S
Fe1799     O1817   2.064       .  S
Fe1799     O1804   2.100       .  S
Fe1799     O1811   2.093       .  S
Fe1799     O1800   2.077       .  S
Fe1799     O1808   1.973       .  S
O1800      C1807   1.263       .  A
O1801      C1815   1.258       .  A
O1802      C1807   1.266       .  A
O1803      C1806   1.271       .  A
O1804      C1816   1.287   1_556  A
O1805      C1818   1.268   1_655  A
C1806      O1811   1.283       .  A
C1806      C3000   1.453       .  S
C1807      C3020   1.490       .  S
O1809      C1812   1.269       .  A
C1812      C2990   1.476       .  S
O1813      C1818   1.268   1_655  A
C1815      O1817   1.261       .  A
C1815      C3013   1.472       .  S
C1818      C3030   1.481       .  S
Fe1819     O1835   2.068       .  S
Fe1819     O1825   2.039       .  S
Fe1819     O1832   2.069       .  S
Fe1819     O1824   2.060       .  S
Fe1819     O1830   1.969       .  S
Fe1820     O1823   2.061       .  S
Fe1820     O1827   2.055       .  S
Fe1820     O1831   2.040       .  S
Fe1820     O1836   2.053       .  S
Fe1820     O1830   1.937       .  S
Fe1821     O1839   2.098       .  S
Fe1821     O1826   2.110       .  S
Fe1821     O1833   2.087       .  S
Fe1821     O1822   2.098       .  S
Fe1821     O1830   1.959       .  S
O1822      C1829   1.275       .  A
O1823      C1837   1.266       .  A
O1824      C1829   1.274       .  A
O1825      C1828   1.266       .  A
O1826      C1838   1.282       .  A
O1827      C1840   1.267   1_655  A
C1828      O1833   1.279       .  A
C1828      C2973   1.460       .  S
C1829      C3023   1.497       .  S
O1831      C1834   1.266       .  A
O1832      C1834   1.266       .  A
C1834      C2963   1.463       .  S
O1835      C1840   1.271   1_655  A
O1836      C1838   1.268       .  A
C1837      O1839   1.274       .  A
C1837      C3323   1.483       .  S
C1838      C2950   1.484       .  S
C1840      C3043   1.466       .  S
Fe1841     O1857   2.068       .  S
Fe1841     O1847   2.043       .  S
Fe1841     O1854   2.064       .  S
Fe1841     O1846   2.062       .  S
Fe1841     O1852   1.968       .  S
Fe1842     O1845   2.066       .  S
Fe1842     O1849   2.052       .  S
Fe1842     O1853   2.041       .  S
Fe1842     O1858   2.062       .  S
Fe1842     O1852   1.942       .  S
Fe1843     O1861   2.067       .  S
Fe1843     O1848   2.085       .  S
Fe1843     O1855   2.081       .  S
Fe1843     O1844   2.079       .  S
Fe1843     O1852   1.959       .  S
O1844      C1851   1.269       .  A
O1845      C1859   1.264       .  A
O1846      C1851   1.272       .  A
O1847      C1850   1.265       .  A
O1848      C1860   1.280       .  A
O1849      C1862   1.270       .  A
C1850      O1855   1.276       .  A
C1850      C2933   1.453       .  S
C1851      C2943   1.482       .  S
O1853      C1856   1.265       .  A
O1854      C1856   1.265       .  A
C1856      C2920   1.471       .  S
O1857      C1862   1.274       .  A
O1858      C1860   1.275       .  A
C1859      O1861   1.265       .  A
C1859      C3263   1.482       .  S
C1860      C2910   1.469       .  S
C1862      C3083   1.469       .  S
Fe1863     O1879   2.062       .  S
Fe1863     O1869   2.040       .  S
Fe1863     O1876   2.055       .  S
Fe1863     O1868   2.044       .  S
Fe1863     O1874   1.956       .  S
Fe1864     O1867   2.060       .  S
Fe1864     O1871   2.066       .  S
Fe1864     O1874   1.928       .  S
Fe1865     O1883   2.106       .  S
Fe1865     O1870   2.092       .  S
Fe1865     O1877   2.083       .  S
Fe1865     O1866   2.110       .  S
Fe1865     O1874   1.961       .  S
O1866      C1873   1.276       .  A
O1867      C1881   1.268       .  A
O1868      C1873   1.269       .  A
O1869      C1872   1.264       .  A
O1870      C1882   1.278       .  A
O1871      C1884   1.272       .  A
C1872      O1877   1.277       .  A
C1872      C2880   1.456       .  S
C1873      C2940   1.484       .  S
O1875      C1878   1.266       .  A
C1878      C2870   1.456       .  S
O1879      C1884   1.273       .  A
C1881      O1883   1.276       .  A
C1881      C2890   1.490       .  S
C1884      C2900   1.469       .  S
Fe1885     O1901   2.076       .  S
Fe1885     O1891   2.062       .  S
Fe1885     O1898   2.071       .  S
Fe1885     O1890   2.041       .  S
Fe1885     O1896   1.979       .  S
Fe1886     O1889   2.061       .  S
Fe1886     O1893   2.034       .  S
Fe1886     O1897   2.055       .  S
Fe1886     O1902   2.049       .  S
Fe1886     O1896   1.948       .  S
Fe1887     O1905   2.118       .  S
Fe1887     O1892   2.076       .  S
Fe1887     O1899   2.109       .  S
Fe1887     O1896   1.964       .  S
O1888      C1895   1.276       .  A
O1889      C1903   1.271       .  A
O1891      C1894   1.275       .  A
O1892      C1904   1.270       .  A
O1893      C1906   1.263       .  A
C1894      O1899   1.277       .  A
C1894      C2850   1.494       .  S
C1895      C2830   1.465       .  S
O1897      C1900   1.268       .  A
O1898      C1900   1.273       .  A
C1900      C3010   1.469       .  S
O1901      C1906   1.265       .  A
O1902      C1904   1.263       .  A
C1903      O1905   1.285       .  A
C1903      C2820   1.490       .  S
C1904      C2810   1.476       .  S
C1906      C2840   1.474       .  S
Fe1907     O1923   2.061       .  S
Fe1907     O1913   2.058       .  S
Fe1907     O1920   2.075       .  S
Fe1907     O1912   2.046       .  S
Fe1907     O1918   1.949       .  S
Fe1908     O1911   2.096       .  S
Fe1908     O1915   2.021       .  S
Fe1908     O1919   2.081       .  S
Fe1908     O1924   2.042       .  S
Fe1908     O1918   1.933       .  S
Fe1909     O1927   2.094       .  S
Fe1909     O1914   2.083       .  S
Fe1909     O1921   2.092       .  S
Fe1909     O1910   2.084       .  S
Fe1909     O1918   1.971       .  S
O1911      C1925   1.282       .  A
O1913      C1916   1.266       .  A
O1914      C1926   1.263       .  A
O1915      C1928   1.265       .  A
C1916      O1921   1.266       .  A
C1916      C2853   1.497       .  S
C1917      C2780   1.450       .  S
O1919      C1922   1.272       .  A
O1920      C1922   1.270       .  A
C1922      C2893   1.494       .  S
O1923      C1928   1.273       .  A
O1924      C1926   1.257       .  A
C1925      O1927   1.287       .  A
C1925      C2803   1.482       .  S
C1926      C2770   1.475       .  S
C1928      C2790   1.463       .  S
Fe1929     O1945   2.058       .  S
Fe1929     O1935   2.041       .  S
Fe1929     O1942   2.070       .  S
Fe1929     O1934   2.060       .  S
Fe1929     O1940   1.954       .  S
Fe1930     O1933   2.048       .  S
Fe1930     O1937   2.064       .  S
Fe1930     O1940   1.949       .  S
Fe1931     O1949   2.059       .  S
Fe1931     O1936   2.098       .  S
Fe1931     O1943   2.090       .  S
Fe1931     O1932   2.074       .  S
Fe1931     O1940   1.976       .  S
O1932      C1939   1.262       .  A
O1933      C1947   1.258       .  A
O1934      C1939   1.267       .  A
O1935      C1938   1.274       .  A
O1936      C1948   1.287   1_556  A
O1937      C1950   1.268   1_455  A
C1938      O1943   1.284       .  A
C1938      C2760   1.452       .  S
C1939      C2740   1.496       .  S
O1941      C1944   1.269       .  A
C1944      C2750   1.479       .  S
O1945      C1950   1.267   1_455  A
C1947      O1949   1.259       .  A
C1947      C2730   1.473       .  S
C1950      C2813   1.476       .  S
Fe1951     O1967   2.071       .  S
Fe1951     O1957   2.040       .  S
Fe1951     O1964   2.077       .  S
Fe1951     O1956   2.065       .  S
Fe1951     O1962   1.982       .  S
Fe1952     O1955   2.056       .  S
Fe1952     O1959   2.057       .  S
Fe1952     O1963   2.033       .  S
Fe1952     O1968   2.060       .  S
Fe1952     O1962   1.951       .  S
Fe1953     O1971   2.089       .  S
Fe1953     O1958   2.103       .  S
Fe1953     O1965   2.084       .  S
Fe1953     O1954   2.101       .  S
Fe1953     O1962   1.965       .  S
O1954      C1961   1.275       .  A
O1955      C1969   1.264       .  A
O1956      C1961   1.274       .  A
O1957      C1960   1.265       .  A
O1958      C1970   1.282       .  A
O1959      C1972   1.268   1_455  A
C1960      O1965   1.277       .  A
C1960      C2710   1.459       .  S
C1961      C2743   1.495       .  S
O1963      C1966   1.262       .  A
O1964      C1966   1.266       .  A
C1966      C2700   1.478   1_455  S
O1967      C1972   1.273   1_455  A
O1968      C1970   1.272       .  A
C1969      O1971   1.272       .  A
C1969      C3063   1.483       .  S
C1970      C3123   1.480       .  S
C1972      C3273   1.473       .  S
Fe1973     O1989   2.079       .  S
Fe1973     O1979   2.061       .  S
Fe1973     O1986   2.070       .  S
Fe1973     O1978   2.049       .  S
Fe1973     O1984   1.979       .  S
Fe1974     O1977   2.067       .  S
Fe1974     O1981   2.029       .  S
Fe1974     O1985   2.058       .  S
Fe1974     O1990   2.050       .  S
Fe1974     O1984   1.942       .  S
Fe1975     O1993   2.115       .  S
Fe1975     O1980   2.085       .  S
Fe1975     O1987   2.119       .  S
Fe1975     O1984   1.955       .  S
O1976      C1983   1.277       .  A
O1977      C1991   1.274       .  A
O1979      C1982   1.275       .  A
O1980      C1992   1.271       .  A
O1981      C1994   1.261       .  A
C1982      O1987   1.278       .  A
C1982      C2660   1.499       .  S
C1983      C2680   1.465       .  S
O1985      C1988   1.269       .  A
O1986      C1988   1.274       .  A
C1988      C2733   1.466       .  S
O1989      C1994   1.265       .  A
O1990      C1992   1.262       .  A
C1991      O1993   1.287       .  A
C1991      C2673   1.490       .  S
C1992      C3033   1.477       .  S
C1994      C2690   1.474       .  S
Fe1995     O2011   2.065       .  S
Fe1995     O2001   2.065       .  S
Fe1995     O2008   2.067       .  S
Fe1995     O2000   2.039       .  S
Fe1995     O2006   1.949       .  S
Fe1996     O1999   2.087       .  S
Fe1996     O2003   2.031       .  S
Fe1996     O2007   2.069       .  S
Fe1996     O2012   2.036       .  S
Fe1996     O2006   1.940       .  S
Fe1997     O2015   2.096       .  S
Fe1997     O2002   2.089       .  S
Fe1997     O2009   2.095       .  S
Fe1997     O2006   1.974       .  S
O1998      C2005   1.283   1_554  A
O1999      C2013   1.280       .  A
O2001      C2004   1.269       .  A
O2002      C2014   1.265       .  A
O2003      C2016   1.267       .  A
C2004      O2009   1.268       .  A
C2004      C2663   1.499       .  S
C2005      C2633   1.451       .  S
O2007      C2010   1.268       .  A
O2008      C2010   1.270       .  A
C2010      C2650   1.484       .  S
O2011      C2016   1.274       .  A
O2012      C2014   1.255       .  A
C2013      O2015   1.285       .  A
C2013      C2620   1.480       .  S
C2014      C2903   1.473       .  S
C2016      C2640   1.472       .  S
Fe2017     O2033   2.062       .  S
Fe2017     O2023   2.096       .  S
Fe2017     O2030   2.054   1_455  S
Fe2017     O2022   2.019       .  S
Fe2017     O2028   1.919       .  S
Fe2018     O2029   2.089       .  S
Fe2018     O2034   2.073       .  S
Fe2018     O2028   1.926       .  S
Fe2019     O2037   2.139       .  S
Fe2019     O2024   2.068       .  S
Fe2019     O2031   2.093       .  S
Fe2019     O2020   2.122       .  S
Fe2019     O2028   1.977       .  S
O2020      C2027   1.269       .  A
O2022      C2027   1.250       .  A
O2023      C2026   1.279       .  A
O2024      C2036   1.272       .  A
O2025      C2038   1.272       .  A
C2026      O2031   1.283       .  A
C2026      C2600   1.509       .  S
C2027      C2960   1.469       .  S
O2029      C2032   1.272       .  A
O2030      C2032   1.264   1_655  A
C2032      C2610   1.468   1_455  S
O2034      C2036   1.271       .  A
C2035      O2037   1.286       .  A
C2036      C3153   1.475       .  S
C2038      C2970   1.472   1_455  S
Fe2039     O2055   2.074       .  S
Fe2039     O2045   2.059       .  S
Fe2039     O2052   2.078       .  S
Fe2039     O2044   2.045       .  S
Fe2039     O2050   1.977       .  S
Fe2040     O2043   2.060       .  S
Fe2040     O2047   2.028       .  S
Fe2040     O2051   2.064       .  S
Fe2040     O2056   2.052       .  S
Fe2040     O2050   1.939       .  S
Fe2041     O2059   2.118       .  S
Fe2041     O2046   2.084       .  S
Fe2041     O2053   2.121       .  S
Fe2041     O2042   2.091       .  S
Fe2041     O2050   1.956       .  S
O2042      C2049   1.276       .  A
O2043      C2057   1.272       .  A
O2044      C2049   1.263       .  A
O2045      C2048   1.274       .  A
O2046      C2058   1.272       .  A
O2047      C2060   1.259       .  A
C2048      O2053   1.278       .  A
C2048      C2603   1.501       .  S
C2049      C2993   1.460       .  S
O2051      C2054   1.271   1_455  A
O2052      C2054   1.276   1_455  A
C2054      C2590   1.473       .  S
O2055      C2060   1.263       .  A
O2056      C2058   1.264       .  A
C2057      O2059   1.287       .  A
C2057      C2670   1.489       .  S
C2058      C2580   1.480       .  S
C2060      C3003   1.473   1_455  S
Fe2061     O2077   2.068       .  S
Fe2061     O2067   2.059       .  S
Fe2061     O2074   2.061       .  S
Fe2061     O2066   2.036       .  S
Fe2061     O2072   1.959       .  S
Fe2062     O2073   2.068       .  S
Fe2062     O2078   2.048       .  S
Fe2062     O2072   1.947       .  S
Fe2063     O2081   2.099       .  S
Fe2063     O2068   2.063       .  S
Fe2063     O2075   2.073       .  S
Fe2063     O2064   2.098       .  S
Fe2063     O2072   1.973       .  S
O2064      C2071   1.284       .  A
O2066      C2071   1.271       .  A
O2067      C2070   1.268       .  A
O2068      C2080   1.260       .  A
O2069      C2082   1.267       .  A
C2070      O2075   1.263       .  A
C2070      C2570   1.493       .  S
C2071      C2703   1.456       .  S
O2073      C2076   1.269       .  A
O2074      C2076   1.269       .  A
C2076      C3113   1.479   1_655  S
O2078      C2080   1.258       .  A
C2079      O2081   1.287       .  A
C2080      C2560   1.472       .  S
C2082      C2713   1.475   1_655  S
Fe2083     O2099   2.080       .  S
Fe2083     O2089   2.057       .  S
Fe2083     O2096   2.065       .  S
Fe2083     O2088   2.040       .  S
Fe2083     O2094   1.985       .  S
Fe2084     O2087   2.060       .  S
Fe2084     O2091   2.024       .  S
Fe2084     O2095   2.062       .  S
Fe2084     O2100   2.054       .  S
Fe2084     O2094   1.944       .  S
Fe2085     O2103   2.119       .  S
Fe2085     O2090   2.076       .  S
Fe2085     O2097   2.106       .  S
Fe2085     O2086   2.098       .  S
Fe2085     O2094   1.950       .  S
O2086      C2093   1.277       .  A
O2087      C2101   1.271       .  A
O2088      C2093   1.261       .  A
O2089      C2092   1.275       .  A
O2090      C2102   1.271       .  A
O2091      C2104   1.258       .  A
C2092      O2097   1.277       .  A
C2092      C2573   1.491       .  S
C2093      C2753   1.464       .  S
O2095      C2098   1.271   1_655  A
O2096      C2098   1.274   1_655  A
C2098      C2553   1.468       .  S
O2099      C2104   1.262       .  A
O2100      C2102   1.264       .  A
C2101      O2103   1.286       .  A
C2101      C2823   1.490       .  S
C2102      C2540   1.479       .  S
C2104      C2763   1.473   1_655  S
Fe2105     O2121   2.076       .  S
Fe2105     O2111   2.040       .  S
Fe2105     O2118   2.069       .  S
Fe2105     O2110   2.062       .  S
Fe2105     O2116   1.986       .  S
Fe2106     O2109   2.053       .  S
Fe2106     O2113   2.064       .  S
Fe2106     O2117   2.023       .  S
Fe2106     O2122   2.058       .  S
Fe2106     O2116   1.948       .  S
Fe2107     O2125   2.076       .  S
Fe2107     O2112   2.115       .  S
Fe2107     O2108   2.094       .  S
Fe2107     O2116   1.952       .  S
O2108      C2115   1.276       .  A
O2109      C2123   1.264       .  A
O2110      C2115   1.274       .  A
O2112      C2124   1.283       .  A
O2113      C2126   1.273       .  A
C2114      O2119   1.273   1_556  A
C2114      C3303   1.462       .  S
C2115      C2530   1.482       .  S
O2117      C2120   1.256       .  A
O2118      C2120   1.258       .  A
C2120      C3293   1.472       .  S
O2121      C2126   1.277       .  A
O2122      C2124   1.272       .  A
C2123      O2125   1.270       .  A
C2123      C2613   1.480       .  S
C2124      C2953   1.485       .  S
C2126      C2563   1.472       .  S
Fe2127     O2143   2.069       .  S
Fe2127     O2133   2.045       .  S
Fe2127     O2140   2.082       .  S
Fe2127     O2132   2.083       .  S
Fe2127     O2138   1.966       .  S
Fe2128     O2131   2.073       .  S
Fe2128     O2135   2.080       .  S
Fe2128     O2139   2.028       .  S
Fe2128     O2144   2.070       .  S
Fe2128     O2138   1.940       .  S
Fe2129     O2147   2.056       .  S
Fe2129     O2134   2.080       .  S
Fe2129     O2130   2.067       .  S
Fe2129     O2138   1.943       .  S
O2130      C2137   1.269       .  A
O2131      C2145   1.266       .  A
O2132      C2137   1.277       .  A
O2134      C2146   1.278       .  A
O2135      C2148   1.275       .  A
C2136      O2141   1.275       .  A
C2136      C3243   1.454       .  S
C2137      C2533   1.484       .  S
O2139      C2142   1.259       .  A
O2140      C2142   1.266       .  A
C2142      C3233   1.476       .  S
O2143      C2148   1.276       .  A
O2144      C2146   1.276       .  A
C2145      O2147   1.265       .  A
C2145      C2510   1.473       .  S
C2146      C2913   1.469       .  S
C2148      C2520   1.476       .  S
Fe2149     O2165   2.075       .  S
Fe2149     O2155   2.041       .  S
Fe2149     O2162   2.061       .  S
Fe2149     O2154   2.077       .  S
Fe2149     O2160   1.967       .  S
Fe2150     O2153   2.073       .  S
Fe2150     O2157   2.047       .  S
Fe2150     O2161   2.048       .  S
Fe2150     O2166   2.044       .  S
Fe2150     O2160   1.939       .  S
Fe2151     O2169   2.068       .  S
Fe2151     O2156   2.106       .  S
Fe2151     O2163   2.097       .  S
Fe2151     O2152   2.067       .  S
Fe2151     O2160   1.955       .  S
O2152      C2159   1.268       .  A
O2153      C2167   1.267       .  A
O2154      C2159   1.275       .  A
O2155      C2158   1.265       .  A
O2156      C2168   1.281       .  A
O2157      C2170   1.268       .  A
C2158      O2163   1.279       .  A
C2158      C2500   1.468       .  S
C2159      C2480   1.475       .  S
O2161      C2164   1.266       .  A
O2162      C2164   1.263       .  A
C2164      C2490   1.463       .  S
O2165      C2170   1.275       .  A
O2166      C2168   1.268       .  A
C2167      O2169   1.268       .  A
C2167      C3103   1.480       .  S
C2168      C3173   1.478       .  S
C2170      C3220   1.467       .  S
Fe2171     O2187   2.080       .  S
Fe2171     O2177   2.030       .  S
Fe2171     O2184   2.038       .  S
Fe2171     O2176   2.064       .  S
Fe2171     O2182   1.966       .  S
Fe2172     O2175   2.070       .  S
Fe2172     O2179   2.055       .  S
Fe2172     O2188   2.057       .  S
Fe2172     O2182   1.942       .  S
Fe2173     O2191   2.071       .  S
Fe2173     O2178   2.108       .  S
Fe2173     O2185   2.095       .  S
Fe2173     O2174   2.080       .  S
Fe2173     O2182   1.961       .  S
O2174      C2181   1.271       .  A
O2175      C2189   1.267       .  A
O2176      C2181   1.272       .  A
O2177      C2180   1.261       .  A
O2178      C2190   1.282       .  A
O2179      C2192   1.270       .  A
C2180      O2185   1.278       .  A
C2180      C2470   1.462       .  S
C2181      C2483   1.477       .  S
O2183      C2186   1.265       .  A
C2186      C2460   1.450       .  S
O2187      C2192   1.276       .  A
O2188      C2190   1.271       .  A
C2189      O2191   1.269       .  A
C2189      C2653   1.481       .  S
C2192      C2773   1.473       .  S
Fe2193     O2209   2.067       .  S
Fe2193     O2199   2.040       .  S
Fe2193     O2206   2.074       .  S
Fe2193     O2198   2.056       .  S
Fe2193     O2204   1.973       .  S
Fe2194     O2197   2.064       .  S
Fe2194     O2201   2.076       .  S
Fe2194     O2205   2.029       .  S
Fe2194     O2210   2.066       .  S
Fe2194     O2204   1.942       .  S
Fe2195     O2213   2.078       .  S
Fe2195     O2200   2.104       .  S
Fe2195     O2207   2.083       .  S
Fe2195     O2196   2.110       .  S
Fe2195     O2204   1.944       .  S
O2196      C2203   1.280       .  A
O2197      C2211   1.267       .  A
O2198      C2203   1.277       .  A
O2199      C2202   1.257       .  A
O2200      C2212   1.282       .  A
O2201      C2214   1.274       .  A
C2202      O2207   1.271       .  A
C2202      C2643   1.451       .  S
C2203      C2430   1.492       .  S
O2205      C2208   1.260       .  A
O2206      C2208   1.263       .  A
C2208      C2630   1.471       .  S
O2209      C2214   1.276       .  A
O2210      C2212   1.273       .  A
C2211      O2213   1.273       .  A
C2211      C2420   1.488       .  S
C2212      C2450   1.482       .  S
C2214      C2440   1.473       .  S
Fe2215     O2231   2.059       .  S
Fe2215     O2221   2.043       .  S
Fe2215     O2228   2.065       .  S
Fe2215     O2220   2.060       .  S
Fe2215     O2226   1.950       .  S
Fe2216     O2219   2.051       .  S
Fe2216     O2223   2.069       .  S
Fe2216     O2227   2.054       .  S
Fe2216     O2232   2.089       .  S
Fe2216     O2226   1.949       .  S
Fe2217     O2235   2.056       .  S
Fe2217     O2222   2.091       .  S
Fe2217     O2229   2.092       .  S
Fe2217     O2218   2.065       .  S
Fe2217     O2226   1.974       .  S
O2218      C2225   1.261       .  A
O2219      C2233   1.258       .  A
O2220      C2225   1.266       .  A
O2221      C2224   1.274       .  A
O2222      C2234   1.286       .  A
O2223      C2236   1.269       .  A
C2224      O2229   1.284       .  A
C2224      C2693   1.454       .  S
C2225      C2433   1.488       .  S
O2227      C2230   1.269       .  A
O2228      C2230   1.273       .  A
C2230      C2683   1.480       .  S
O2231      C2236   1.268       .  A
O2232      C2234   1.282       .  A
C2233      O2235   1.259       .  A
C2233      C2550   1.467       .  S
C2234      C2723   1.477       .  S
C2236      C2583   1.479       .  S
Fe2237     O2253   2.063       .  S
Fe2237     O2243   2.091       .  S
Fe2237     O2250   2.052       .  S
Fe2237     O2242   2.019       .  S
Fe2237     O2248   1.919       .  S
Fe2238     O2249   2.076       .  S
Fe2238     O2254   2.062       .  S
Fe2238     O2248   1.930       .  S
Fe2239     O2257   2.158       .  S
Fe2239     O2244   2.077       .  S
Fe2239     O2251   2.092       .  S
Fe2239     O2240   2.130       .  S
Fe2239     O2248   1.974       .  S
O2240      C2247   1.273       .  A
O2241      C2255   1.270       .  A
O2242      C2247   1.253       .  A
O2243      C2246   1.277       .  A
O2244      C2256   1.271       .  A
O2245      C2258   1.272       .  A
C2246      O2251   1.282       .  A
C2246      C2410   1.509       .  S
C2247      C2493   1.470       .  S
O2249      C2252   1.269       .  A
O2250      C2252   1.264       .  A
C2252      C3163   1.461       .  S
O2254      C2256   1.268       .  A
C2255      C3253   1.495       .  S
C2256      C2523   1.471       .  S
C2258      C2503   1.474       .  S
Fe2259     O2275   2.062       .  S
Fe2259     O2265   2.079       .  S
Fe2259     O2272   2.052       .  S
Fe2259     O2264   2.014       .  S
Fe2259     O2270   1.927       .  S
Fe2260     O2263   2.050       .  S
Fe2260     O2267   2.050       .  S
Fe2260     O2271   2.098       .  S
Fe2260     O2276   2.063       .  S
Fe2260     O2270   1.934       .  S
Fe2261     O2279   2.136       .  S
Fe2261     O2266   2.083       .  S
Fe2261     O2273   2.096       .  S
Fe2261     O2262   2.108       .  S
Fe2261     O2270   1.972       .  S
O2262      C2269   1.273       .  A
O2263      C2277   1.271       .  A
O2264      C2269   1.257       .  A
O2265      C2268   1.275       .  A
O2266      C2278   1.272       .  A
O2267      C2280   1.268       .  A
C2268      O2273   1.281       .  A
C2268      C2413   1.506       .  S
C2269      C2463   1.456       .  S
O2271      C2274   1.275       .  A
O2272      C2274   1.265       .  A
C2274      C2423   1.476       .  S
O2275      C2280   1.274       .  A
O2276      C2278   1.267       .  A
C2277      O2279   1.286       .  A
C2277      C2800   1.485       .  S
C2278      C2400   1.475       .  S
C2280      C2473   1.473       .  S
Fe2281     O2297   2.063       .  S
Fe2281     O2287   2.033       .  S
Fe2281     O2294   2.059       .  S
Fe2281     O2286   2.055       .  S
Fe2281     O2292   1.956       .  S
Fe2282     O2285   2.047       .  S
Fe2282     O2289   2.069       .  S
Fe2282     O2293   2.057       .  S
Fe2282     O2298   2.077       .  S
Fe2282     O2292   1.958       .  S
Fe2283     O2301   2.065       .  S
Fe2283     O2288   2.109       .  S
Fe2283     O2295   2.100       .  S
Fe2283     O2284   2.077       .  S
Fe2283     O2292   1.980       .  S
O2284      C2291   1.264       .  A
O2285      C2299   1.259       .  A
O2286      C2291   1.265       .  A
O2287      C2290   1.271       .  A
O2288      C2300   1.289       .  A
O2289      C2302   1.269       .  A
C2290      O2295   1.285       .  A
C2290      C2843   1.456       .  S
C2291      C2390   1.494       .  S
O2293      C2296   1.267       .  A
O2294      C2296   1.270       .  A
C2296      C2833   1.479       .  S
O2297      C2302   1.270       .  A
O2298      C2300   1.281       .  A
C2299      O2301   1.261       .  A
C2299      C2593   1.477       .  S
C2300      C2983   1.483       .  S
C2302      C2543   1.480       .  S
Fe2303     O2319   2.077       .  S
Fe2303     O2309   2.035       .  S
Fe2303     O2316   2.069       .  S
Fe2303     O2308   2.064       .  S
Fe2303     O2314   1.974       .  S
Fe2304     O2307   2.062       .  S
Fe2304     O2311   2.079       .  S
Fe2304     O2315   2.029       .  S
Fe2304     O2320   2.075       .  S
Fe2304     O2314   1.951       .  S
Fe2305     O2323   2.074       .  S
Fe2305     O2310   2.091       .  S
Fe2305     O2317   2.064       .  S
Fe2305     O2306   2.101       .  S
Fe2305     O2314   1.954       .  S
O2306      C2313   1.275       .  A
O2307      C2321   1.265       .  A
O2308      C2313   1.276       .  A
O2309      C2312   1.260       .  A
O2310      C2322   1.279       .  A
O2311      C2324   1.273       .  A
C2312      O2317   1.270       .  A
C2312      C2793   1.438       .  S
C2313      C2393   1.494       .  S
O2315      C2318   1.261       .  A
O2316      C2318   1.264       .  A
C2318      C2783   1.472       .  S
O2319      C2324   1.276       .  A
O2320      C2322   1.275       .  A
C2321      O2323   1.271       .  A
C2321      C2380   1.485       .  S
C2322      C2863   1.477       .  S
C2324      C2403   1.481       .  S
Fe2325     O2341   2.066       .  S
Fe2325     O2331   2.063       .  S
Fe2325     O2338   2.060       .  S
Fe2325     O2330   2.035       .  S
Fe2325     O2336   1.954       .  S
Fe2326     O2337   2.064       .  S
Fe2326     O2342   2.040       .  S
Fe2326     O2336   1.948       .  S
Fe2327     O2345   2.108       .  S
Fe2327     O2332   2.083       .  S
Fe2327     O2339   2.092       .  S
Fe2327     O2328   2.096       .  S
Fe2327     O2336   1.976       .  S
O2328      C2335   1.284       .  A
O2330      C2335   1.271       .  A
O2331      C2334   1.269       .  A
O2332      C2344   1.264       .  A
O2333      C2346   1.268       .  A
C2334      O2339   1.268       .  A
C2334      C2370   1.506       .  S
C2335      C2923   1.456       .  S
O2337      C2340   1.267       .  A
O2338      C2340   1.269       .  A
C2340      C2513   1.482       .  S
O2342      C2344   1.257       .  A
C2343      O2345   1.288   1_554  A
C2344      C3213   1.473       .  S
C2346      C2930   1.475       .  S
Fe2347     O2363   2.062       .  S
Fe2347     O2353   2.103       .  S
Fe2347     O2360   2.059       .  S
Fe2347     O2352   2.015       .  S
Fe2347     O2358   1.926       .  S
Fe2348     O2351   2.048       .  S
Fe2348     O2355   2.054       .  S
Fe2348     O2359   2.093       .  S
Fe2348     O2364   2.061       .  S
Fe2348     O2358   1.929       .  S
Fe2349     O2367   2.140       .  S
Fe2349     O2354   2.070       .  S
Fe2349     O2361   2.082       .  S
Fe2349     O2350   2.119       .  S
Fe2349     O2358   1.964       .  S
O2350      C2357   1.274       .  A
O2351      C2365   1.271       .  A
O2352      C2357   1.255       .  A
O2353      C2356   1.278       .  A
O2354      C2366   1.270       .  A
O2355      C2368   1.271       .  A
C2356      O2361   1.279       .  A
C2356      C2373   1.509       .  S
C2357      C2873   1.463       .  S
O2359      C2362   1.273       .  A
O2360      C2362   1.266       .  A
C2362      C2383   1.473       .  S
O2363      C2368   1.276       .  A
O2364      C2366   1.267       .  A
C2365      O2367   1.287       .  A
C2365      C2623   1.488       .  S
C2366      C2443   1.469       .  S
C2368      C2883   1.473       .  S
C2369      C2370   1.407       .  A
C2369      C2374   1.407       .  A
C2369      H2375   1.083       .  S
C2370      C2371   1.413       .  A
C2371      C2372   1.413       .  A
C2371      H2376   1.083       .  S
C2372      C2373   1.409       .  A
C2372      H2377   1.083       .  S
C2373      C2374   1.413       .  A
C2374      H2378   1.082       .  S
C2379      C2380   1.411       .  A
C2379      C2384   1.408       .  A
C2379      H2385   1.083       .  S
C2380      C2381   1.403       .  A
C2381      C2382   1.391       .  A
C2381      H2386   1.083       .  S
C2382      C2383   1.402       .  A
C2382      H2387   1.081       .  S
C2383      C2384   1.404       .  A
C2384      H2388   1.083       .  S
C2389      C2390   1.407       .  A
C2389      C2394   1.403       .  A
C2389      H2395   1.083       .  S
C2390      C2391   1.409       .  A
C2391      C2392   1.410       .  A
C2391      H2396   1.083       .  S
C2392      C2393   1.410       .  A
C2392      H2397   1.083       .  S
C2393      C2394   1.407       .  A
C2394      H2398   1.083       .  S
C2399      C2400   1.402       .  A
C2399      C2404   1.403       .  A
C2399      H2405   1.083       .  S
C2400      C2401   1.406       .  A
C2401      C2402   1.396       .  A
C2401      H2406   1.083       .  S
C2402      C2403   1.403       .  A
C2402      H2407   1.083       .  S
C2403      C2404   1.410       .  A
C2404      H2408   1.083       .  S
C2409      C2410   1.410       .  A
C2409      C2414   1.397   1_565  A
C2409      H2415   1.082       .  S
C2410      C2411   1.413       .  A
C2411      C2412   1.420   1_565  A
C2411      H2416   1.083       .  S
C2412      C2413   1.413       .  A
C2412      H2417   1.082       .  S
C2413      C2414   1.408       .  A
C2414      H2418   1.083       .  S
C2419      C2420   1.413       .  A
C2419      C2424   1.410       .  A
C2419      H2425   1.082       .  S
C2420      C2421   1.402       .  A
C2421      C2422   1.390       .  A
C2421      H2426   1.084       .  S
C2422      C2423   1.404       .  A
C2422      H2427   1.079       .  S
C2423      C2424   1.403       .  A
C2424      H2428   1.083       .  S
C2429      C2430   1.408       .  A
C2429      C2434   1.403       .  A
C2429      H2435   1.083       .  S
C2430      C2431   1.408       .  A
C2431      C2432   1.407       .  A
C2431      H2436   1.083       .  S
C2432      C2433   1.408       .  A
C2432      H2437   1.083       .  S
C2433      C2434   1.406       .  A
C2434      H2438   1.084       .  S
C2439      C2440   1.408       .  A
C2439      C2444   1.397       .  A
C2439      H2445   1.083       .  S
C2440      C2441   1.402       .  A
C2441      C2442   1.394       .  A
C2441      H2446   1.083       .  S
C2442      C2443   1.406       .  A
C2442      H2447   1.084       .  S
C2443      C2444   1.401       .  A
C2444      H2448   1.083       .  S
C2449      C2450   1.408       .  A
C2449      C2454   1.407       .  A
C2449      H2455   1.083       .  S
C2450      C2451   1.403       .  A
C2451      C2452   1.403       .  A
C2451      H2456   1.083       .  S
C2452      C2453   1.409       .  A
C2452      H2457   1.084       .  S
C2453      C2454   1.405       .  A
C2459      C2460   1.391       .  A
C2459      C2464   1.387       .  A
C2459      H2465   1.083       .  S
C2460      C2461   1.409       .  A
C2461      C2462   1.396       .  A
C2462      C2463   1.395       .  A
C2462      H2467   1.083       .  S
C2463      C2464   1.408       .  A
C2464      H2468   1.084       .  S
C2469      C2470   1.415       .  A
C2469      C2474   1.398       .  A
C2469      H2475   1.080       .  S
C2470      C2471   1.392       .  A
C2471      C2472   1.390       .  A
C2471      H2476   1.084       .  S
C2472      C2473   1.413       .  A
C2472      H2477   1.083       .  S
C2473      C2474   1.396       .  A
C2474      H2478   1.083       .  S
C2479      C2480   1.409       .  A
C2479      C2484   1.398       .  A
C2479      H2485   1.081       .  S
C2480      C2481   1.396   1_565  A
C2481      C2482   1.403       .  A
C2481      H2486   1.083       .  S
C2482      C2483   1.413       .  A
C2482      H2487   1.082       .  S
C2483      C2484   1.397   1_545  A
C2484      H2488   1.083       .  S
C2489      C2490   1.412       .  A
C2489      C2494   1.404       .  A
C2489      H2495   1.084       .  S
C2490      C2491   1.394       .  A
C2491      C2492   1.385       .  A
C2491      H2496   1.083       .  S
C2492      C2493   1.409       .  A
C2492      H2497   1.083       .  S
C2493      C2494   1.398       .  A
C2494      H2498   1.082       .  S
C2499      C2500   1.396       .  A
C2499      C2504   1.395       .  A
C2499      H2505   1.083       .  S
C2500      C2501   1.413       .  A
C2501      C2502   1.395       .  A
C2501      H2506   1.081       .  S
C2502      C2503   1.396       .  A
C2502      H2507   1.083       .  S
C2503      C2504   1.411       .  A
C2504      H2508   1.082       .  S
C2509      C2510   1.404       .  A
C2509      C2514   1.406       .  A
C2509      H2515   1.083       .  S
C2510      C2511   1.402       .  A
C2511      C2512   1.388       .  A
C2511      H2516   1.083       .  S
C2512      C2513   1.403       .  A
C2512      H2517   1.083       .  S
C2513      C2514   1.411       .  A
C2514      H2518   1.082       .  S
C2519      C2520   1.402       .  A
C2519      C2524   1.394       .  A
C2519      H2525   1.083       .  S
C2520      C2521   1.409       .  A
C2521      C2522   1.401       .  A
C2521      H2526   1.083       .  S
C2522      C2523   1.402       .  A
C2522      H2527   1.083       .  S
C2523      C2524   1.405       .  A
C2524      H2528   1.084       .  S
C2529      C2530   1.398       .  A
C2529      C2534   1.400       .  A
C2529      H2535   1.083       .  S
C2531      C2532   1.404       .  A
C2531      H2536   1.083       .  S
C2532      C2533   1.399       .  A
C2532      H2537   1.083       .  S
C2534      H2538   1.083       .  S
C2539      C2540   1.401       .  A
C2539      C2544   1.390       .  A
C2539      H2545   1.083       .  S
C2540      C2541   1.409       .  A
C2541      C2542   1.405       .  A
C2541      H2546   1.083       .  S
C2542      C2543   1.406       .  A
C2542      H2547   1.083       .  S
C2543      C2544   1.405       .  A
C2544      H2548   1.083       .  S
C2549      C2550   1.401       .  A
C2549      C2554   1.394       .  A
C2549      H2555   1.083       .  S
C2550      C2551   1.405       .  A
C2551      C2552   1.395       .  A
C2551      H2556   1.083       .  S
C2552      C2553   1.401       .  A
C2552      H2557   1.083       .  S
C2553      C2554   1.406       .  A
C2554      H2558   1.083       .  S
C2559      C2560   1.407       .  A
C2559      C2564   1.398       .  A
C2559      H2565   1.083       .  S
C2560      C2561   1.401       .  A
C2561      C2562   1.394       .  A
C2561      H2566   1.083       .  S
C2562      C2563   1.406       .  A
C2562      H2567   1.083       .  S
C2563      C2564   1.402       .  A
C2564      H2568   1.083       .  S
C2569      C2570   1.406       .  A
C2569      C2574   1.404   1_565  A
C2569      H2575   1.083       .  S
C2570      C2571   1.410       .  A
C2571      C2572   1.408   1_565  A
C2571      H2576   1.083       .  S
C2572      C2573   1.406       .  A
C2572      H2577   1.083       .  S
C2573      C2574   1.408       .  A
C2574      H2578   1.083       .  S
C2579      C2580   1.402       .  A
C2579      C2584   1.393       .  A
C2579      H2585   1.083       .  S
C2580      C2581   1.409       .  A
C2581      C2582   1.403       .  A
C2581      H2586   1.083       .  S
C2582      C2583   1.405       .  A
C2582      H2587   1.083       .  S
C2583      C2584   1.406       .  A
C2584      H2588   1.083       .  S
C2589      C2590   1.403       .  A
C2589      C2594   1.401       .  A
C2589      H2595   1.083       .  S
C2590      C2591   1.404       .  A
C2591      C2592   1.395       .  A
C2591      H2596   1.083       .  S
C2592      C2593   1.403       .  A
C2592      H2597   1.084       .  S
C2593      C2594   1.407       .  A
C2594      H2598   1.083       .  S
C2599      C2600   1.411       .  A
C2599      C2604   1.419       .  A
C2599      H2605   1.083       .  S
C2600      C2601   1.412       .  A
C2601      C2602   1.398       .  A
C2601      H2606   1.081       .  S
C2602      C2603   1.404       .  A
C2602      H2607   1.083       .  S
C2603      C2604   1.414       .  A
C2604      H2608   1.082       .  S
C2609      C2610   1.402       .  A
C2609      C2614   1.397       .  A
C2609      H2615   1.076       .  S
C2610      C2611   1.403       .  A
C2611      C2612   1.402       .  A
C2611      H2616   1.083       .  S
C2612      C2613   1.407       .  A
C2612      H2617   1.083       .  S
C2613      C2614   1.403       .  A
C2614      H2618   1.083       .  S
C2619      C2620   1.407       .  A
C2619      C2624   1.407       .  A
C2619      H2625   1.083       .  S
C2620      C2621   1.403       .  A
C2621      C2622   1.403       .  A
C2621      H2626   1.083       .  S
C2622      C2623   1.408       .  A
C2622      H2627   1.083       .  S
C2623      C2624   1.406       .  A
C2624      H2628   1.083       .  S
C2629      C2630   1.405       .  A
C2629      C2634   1.392       .  A
C2629      H2635   1.083       .  S
C2630      C2631   1.403       .  A
C2631      C2632   1.399       .  A
C2631      H2636   1.083       .  S
C2632      C2633   1.406       .  A
C2632      H2637   1.084       .  S
C2633      C2634   1.400       .  A
C2634      H2638   1.084       .  S
C2639      C2640   1.403       .  A
C2639      C2644   1.395       .  A
C2639      H2645   1.083       .  S
C2640      C2641   1.410       .  A
C2641      C2642   1.390       .  A
C2641      H2646   1.083       .  S
C2642      C2643   1.396       .  A
C2642      H2647   1.084       .  S
C2643      C2644   1.405       .  A
C2644      H2648   1.084       .  S
C2649      C2650   1.404       .  A
C2649      C2654   1.394       .  A
C2649      H2655   1.083       .  S
C2650      C2651   1.409       .  A
C2651      C2652   1.406       .  A
C2651      H2656   1.083       .  S
C2652      C2653   1.406       .  A
C2652      H2657   1.083       .  S
C2653      C2654   1.404       .  A
C2654      H2658   1.083       .  S
C2659      C2660   1.410       .  A
C2659      C2664   1.415   1_556  A
C2659      H2665   1.083       .  S
C2661      C2662   1.403       .  A
C2661      H2666   1.083       .  S
C2662      C2663   1.406       .  A
C2662      H2667   1.084       .  S
C2664      H2668   1.083       .  S
C2669      C2670   1.405       .  A
C2669      C2674   1.408       .  A
C2669      H2675   1.083       .  S
C2670      C2671   1.410       .  A
C2671      C2672   1.408       .  A
C2671      H2676   1.084       .  S
C2672      C2673   1.405       .  A
C2672      H2677   1.083       .  S
C2673      C2674   1.409       .  A
C2674      H2678   1.084       .  S
C2679      C2680   1.399       .  A
C2679      C2684   1.398       .  A
C2680      C2681   1.406       .  A
C2681      C2682   1.396       .  A
C2681      H2686   1.083       .  S
C2682      C2683   1.403       .  A
C2682      H2687   1.083       .  S
C2683      C2684   1.412       .  A
C2684      H2688   1.083       .  S
C2689      C2690   1.402       .  A
C2689      C2694   1.401       .  A
C2689      H2695   1.083       .  S
C2690      C2691   1.406       .  A
C2691      C2692   1.393       .  A
C2691      H2696   1.083       .  S
C2692      C2693   1.399       .  A
C2692      H2697   1.084       .  S
C2693      C2694   1.407       .  A
C2694      H2698   1.084       .  S
C2699      C2700   1.405       .  A
C2699      C2704   1.394       .  A
C2699      H2705   1.083   1_655  S
C2700      C2701   1.404       .  A
C2701      C2702   1.402       .  A
C2701      H2706   1.083       .  S
C2702      C2703   1.407       .  A
C2702      H2707   1.084       .  S
C2703      C2704   1.401       .  A
C2704      H2708   1.084       .  S
C2709      C2710   1.408       .  A
C2709      C2714   1.397       .  A
C2709      H2715   1.084       .  S
C2710      C2711   1.395       .  A
C2711      C2712   1.393       .  A
C2711      H2716   1.084       .  S
C2712      C2713   1.411       .  A
C2712      H2717   1.083       .  S
C2713      C2714   1.401       .  A
C2719      C2720   1.405       .  A
C2719      C2724   1.402       .  A
C2719      H2725   1.084       .  S
C2720      C2721   1.405       .  A
C2721      C2722   1.405       .  A
C2721      H2726   1.083       .  S
C2722      C2723   1.405       .  A
C2722      H2727   1.084       .  S
C2723      C2724   1.404       .  A
C2724      H2728   1.083       .  S
C2729      C2730   1.403       .  A
C2729      C2734   1.395       .  A
C2729      H2735   1.084       .  S
C2730      C2731   1.407       .  A
C2731      C2732   1.397       .  A
C2731      H2736   1.083       .  S
C2732      C2733   1.401       .  A
C2732      H2737   1.084       .  S
C2733      C2734   1.403       .  A
C2734      H2738   1.083       .  S
C2739      C2740   1.411       .  A
C2739      C2744   1.410       .  A
C2739      H2745   1.083       .  S
C2740      C2741   1.407       .  A
C2741      C2742   1.405       .  A
C2741      H2746   1.083       .  S
C2742      C2743   1.408   1_545  A
C2742      H2747   1.083   1_545  S
C2743      C2744   1.408   1_565  A
C2744      H2748   1.083   1_545  S
C2749      C2750   1.402   1_655  A
C2749      C2754   1.397       .  A
C2749      H2755   1.083       .  S
C2750      C2751   1.412   1_455  A
C2751      C2752   1.396       .  A
C2751      H2756   1.083   1_655  S
C2752      C2753   1.397       .  A
C2752      H2757   1.084       .  S
C2753      C2754   1.408       .  A
C2754      H2758   1.084       .  S
C2759      C2760   1.406       .  A
C2759      C2764   1.400       .  A
C2759      H2765   1.084       .  S
C2760      C2761   1.399       .  A
C2761      C2762   1.391       .  A
C2761      H2766   1.084       .  S
C2762      C2763   1.405       .  A
C2762      H2767   1.083   1_455  S
C2763      C2764   1.403       .  A
C2764      H2768   1.083       .  S
C2769      C2770   1.408       .  A
C2769      C2774   1.401       .  A
C2769      H2775   1.083       .  S
C2770      C2771   1.402       .  A
C2771      C2772   1.394       .  A
C2771      H2776   1.084       .  S
C2772      C2773   1.405       .  A
C2772      H2777   1.083       .  S
C2773      C2774   1.403       .  A
C2774      H2778   1.084       .  S
C2779      C2780   1.400       .  A
C2779      C2784   1.393       .  A
C2779      H2785   1.085       .  S
C2780      C2781   1.405       .  A
C2781      C2782   1.397       .  A
C2781      H2786   1.081       .  S
C2782      C2783   1.403       .  A
C2782      H2787   1.085       .  S
C2783      C2784   1.405       .  A
C2784      H2788   1.081       .  S
C2789      C2790   1.404       .  A
C2789      C2794   1.394       .  A
C2789      H2795   1.083       .  S
C2790      C2791   1.407       .  A
C2791      C2792   1.385       .  A
C2791      H2796   1.083       .  S
C2792      C2793   1.395       .  A
C2792      H2797   1.085       .  S
C2793      C2794   1.400       .  A
C2794      H2798   1.083       .  S
C2799      C2800   1.408       .  A
C2799      C2804   1.404       .  A
C2799      H2805   1.083       .  S
C2800      C2801   1.406       .  A
C2801      C2802   1.406       .  A
C2801      H2806   1.083       .  S
C2802      C2803   1.407       .  A
C2802      H2807   1.083       .  S
C2803      C2804   1.404       .  A
C2804      H2808   1.083       .  S
C2809      C2810   1.408       .  A
C2809      C2814   1.401       .  A
C2809      H2815   1.083       .  S
C2810      C2811   1.402       .  A
C2811      C2812   1.392       .  A
C2811      H2816   1.083       .  S
C2812      C2813   1.406       .  A
C2812      H2817   1.083       .  S
C2813      C2814   1.404       .  A
C2814      H2818   1.083       .  S
C2819      C2820   1.405       .  A
C2819      C2824   1.408       .  A
C2819      H2825   1.083       .  S
C2820      C2821   1.410       .  A
C2821      C2822   1.408       .  A
C2821      H2826   1.083       .  S
C2822      C2823   1.405       .  A
C2822      H2827   1.083       .  S
C2823      C2824   1.410       .  A
C2824      H2828   1.083       .  S
C2829      C2830   1.407       .  A
C2829      C2834   1.395       .  A
C2829      H2835   1.084       .  S
C2830      C2831   1.398       .  A
C2831      C2832   1.397       .  A
C2831      H2836   1.083       .  S
C2832      C2833   1.411       .  A
C2832      H2837   1.083       .  S
C2833      C2834   1.402       .  A
C2834      H2838   1.083       .  S
C2839      C2840   1.403       .  A
C2839      C2844   1.403       .  A
C2839      H2845   1.083       .  S
C2840      C2841   1.405       .  A
C2841      C2842   1.392       .  A
C2841      H2846   1.083       .  S
C2842      C2843   1.399       .  A
C2842      H2847   1.084       .  S
C2843      C2844   1.408       .  A
C2844      H2848   1.083       .  S
C2849      C2850   1.406       .  A
C2849      C2854   1.402   1_556  A
C2849      H2855   1.087       .  S
C2851      C2852   1.413       .  A
C2851      H2856   1.082       .  S
C2852      C2853   1.411       .  A
C2852      H2857   1.085       .  S
C2854      H2858   1.081       .  S
C2859      C2860   1.404       .  A
C2859      C2864   1.403       .  A
C2859      H2865   1.083       .  S
C2860      C2861   1.407       .  A
C2861      C2862   1.402       .  A
C2861      H2866   1.084       .  S
C2862      C2863   1.403       .  A
C2862      H2867   1.083       .  S
C2863      C2864   1.406       .  A
C2864      H2868   1.084       .  S
C2869      C2870   1.392       .  A
C2869      C2874   1.384       .  A
C2869      H2875   1.084       .  S
C2870      C2871   1.410       .  A
C2871      C2872   1.401       .  A
C2872      C2873   1.397       .  A
C2872      H2877   1.083       .  S
C2873      C2874   1.408       .  A
C2874      H2878   1.084       .  S
C2879      C2880   1.412       .  A
C2879      C2884   1.399       .  A
C2879      H2885   1.083       .  S
C2880      C2881   1.392       .  A
C2881      C2882   1.388       .  A
C2881      H2886   1.084       .  S
C2882      C2883   1.412       .  A
C2882      H2887   1.083       .  S
C2883      C2884   1.398       .  A
C2884      H2888   1.083       .  S
C2889      C2890   1.408       .  A
C2889      C2894   1.405       .  A
C2889      H2895   1.083       .  S
C2890      C2891   1.405       .  A
C2891      C2892   1.403       .  A
C2891      H2896   1.083       .  S
C2892      C2893   1.410       .  A
C2892      H2897   1.082       .  S
C2893      C2894   1.407       .  A
C2894      H2898   1.083       .  S
C2899      C2900   1.404       .  A
C2899      C2904   1.399       .  A
C2899      H2905   1.084       .  S
C2900      C2901   1.403       .  A
C2901      C2902   1.394       .  A
C2902      C2903   1.404       .  A
C2903      C2904   1.405       .  A
C2904      H2908   1.083       .  S
C2909      C2910   1.406       .  A
C2909      C2914   1.400       .  A
C2909      H2915   1.084       .  S
C2910      C2911   1.402       .  A
C2911      C2912   1.399       .  A
C2911      H2916   1.084       .  S
C2912      C2913   1.405       .  A
C2912      H2917   1.084       .  S
C2913      C2914   1.401       .  A
C2914      H2918   1.083       .  S
C2919      C2920   1.406       .  A
C2919      C2924   1.394       .  A
C2919      H2925   1.083       .  S
C2920      C2921   1.401       .  A
C2921      C2922   1.400       .  A
C2921      H2926   1.083       .  S
C2922      C2923   1.409       .  A
C2922      H2927   1.084       .  S
C2923      C2924   1.399       .  A
C2924      H2928   1.084       .  S
C2929      C2930   1.403       .  A
C2929      C2934   1.395       .  A
C2929      H2935   1.083       .  S
C2930      C2931   1.410       .  A
C2931      C2932   1.394       .  A
C2931      H2936   1.083       .  S
C2932      C2933   1.397       .  A
C2932      H2937   1.084       .  S
C2933      C2934   1.404       .  A
C2934      H2938   1.084       .  S
C2939      C2940   1.407       .  A
C2939      C2944   1.397       .  A
C2939      H2945   1.083       .  S
C2940      C2941   1.406       .  A
C2941      C2942   1.407       .  A
C2941      H2946   1.083       .  S
C2942      C2943   1.409       .  A
C2942      H2947   1.083       .  S
C2943      C2944   1.403       .  A
C2944      H2948   1.083       .  S
C2949      C2950   1.404       .  A
C2949      C2954   1.406       .  A
C2949      H2955   1.083       .  S
C2950      C2951   1.410       .  A
C2951      C2952   1.405       .  A
C2951      H2956   1.084       .  S
C2952      C2953   1.403       .  A
C2952      H2957   1.083       .  S
C2953      C2954   1.409       .  A
C2954      H2958   1.083       .  S
C2959      C2960   1.408       .  A
C2959      C2964   1.383   1_455  A
C2959      H2965   1.083   1_455  S
C2960      C2961   1.399       .  A
C2961      C2962   1.403       .  A
C2961      H2966   1.083       .  S
C2962      C2963   1.411   1_455  A
C2962      H2967   1.083       .  S
C2963      C2964   1.395       .  A
C2964      H2968   1.084       .  S
C2969      C2970   1.410       .  A
C2969      C2974   1.388       .  A
C2969      H2975   1.080       .  S
C2970      C2971   1.399       .  A
C2971      C2972   1.401       .  A
C2971      H2976   1.083       .  S
C2972      C2973   1.413       .  A
C2972      H2977   1.084       .  S
C2973      C2974   1.392       .  A
C2974      H2978   1.084       .  S
C2979      C2980   1.406       .  A
C2979      C2984   1.409       .  A
C2979      H2985   1.083       .  S
C2980      C2981   1.404       .  A
C2981      C2982   1.400       .  A
C2981      H2986   1.084       .  S
C2982      C2983   1.405       .  A
C2982      H2987   1.083       .  S
C2983      C2984   1.407       .  A
C2984      H2988   1.084       .  S
C2989      C2990   1.403   1_455  A
C2989      C2994   1.394       .  A
C2990      C2991   1.411   1_655  A
C2991      C2992   1.396       .  A
C2991      H2996   1.083   1_455  S
C2992      C2993   1.398       .  A
C2992      H2997   1.084       .  S
C2993      C2994   1.406       .  A
C2994      H2998   1.084       .  S
C2999      C3000   1.405       .  A
C2999      C3004   1.400       .  A
C2999      H3005   1.084       .  S
C3000      C3001   1.401       .  A
C3001      C3002   1.391       .  A
C3001      H3006   1.084       .  S
C3002      C3003   1.404       .  A
C3002      H3007   1.083   1_655  S
C3003      C3004   1.405       .  A
C3004      H3008   1.083       .  S
C3009      C3010   1.401       .  A
C3009      C3014   1.395       .  A
C3009      H3015   1.083       .  S
C3010      C3011   1.405       .  A
C3011      C3012   1.396       .  A
C3011      H3016   1.083       .  S
C3012      C3013   1.403       .  A
C3012      H3017   1.083       .  S
C3013      C3014   1.406       .  A
C3014      H3018   1.083       .  S
C3019      C3020   1.407       .  A
C3019      C3024   1.404       .  A
C3019      H3025   1.083       .  S
C3020      C3021   1.406       .  A
C3021      C3022   1.408       .  A
C3021      H3026   1.083       .  S
C3022      C3023   1.411       .  A
C3022      H3027   1.083       .  S
C3023      C3024   1.408       .  A
C3024      H3028   1.083       .  S
C3029      C3030   1.406       .  A
C3029      C3034   1.394       .  A
C3029      H3035   1.083       .  S
C3030      C3031   1.406       .  A
C3031      C3032   1.402       .  A
C3032      C3033   1.407       .  A
C3033      C3034   1.402       .  A
C3034      H3038   1.083       .  S
C3039      C3040   1.405       .  A
C3039      C3044   1.393       .  A
C3039      H3045   1.084       .  S
C3040      C3041   1.407       .  A
C3041      C3042   1.399       .  A
C3041      H3046   1.083       .  S
C3042      C3043   1.401       .  A
C3042      H3047   1.084       .  S
C3043      C3044   1.402       .  A
C3044      H3048   1.083       .  S
C3049      C3050   1.406       .  A
C3049      C3054   1.405       .  A
C3049      H3055   1.083       .  S
C3050      C3051   1.405       .  A
C3051      C3052   1.406       .  A
C3051      H3056   1.084       .  S
C3052      C3053   1.408       .  A
C3052      H3057   1.083       .  S
C3053      C3054   1.406       .  A
C3054      H3058   1.084       .  S
C3059      C3060   1.407       .  A
C3059      C3064   1.405       .  A
C3059      H3065   1.083       .  S
C3060      C3061   1.408       .  A
C3061      C3062   1.396       .  A
C3061      H3066   1.083       .  S
C3062      C3063   1.402       .  A
C3062      H3067   1.083       .  S
C3063      C3064   1.408       .  A
C3064      H3068   1.083       .  S
C3069      C3070   1.406       .  A
C3069      C3074   1.405       .  A
C3069      H3075   1.084       .  S
C3070      C3071   1.407       .  A
C3071      C3072   1.410       .  A
C3071      H3076   1.083       .  S
C3072      C3073   1.408       .  A
C3072      H3077   1.083       .  S
C3073      C3074   1.406       .  A
C3074      H3078   1.083       .  S
C3079      C3080   1.405       .  A
C3079      C3084   1.396       .  A
C3079      H3085   1.083       .  S
C3080      C3081   1.403       .  A
C3081      C3082   1.392       .  A
C3081      H3086   1.084       .  S
C3082      C3083   1.404       .  A
C3082      H3087   1.083       .  S
C3083      C3084   1.403       .  A
C3084      H3088   1.084       .  S
C3089      C3090   1.412       .  A
C3089      C3094   1.410       .  A
C3089      H3095   1.083       .  S
C3090      C3091   1.409       .  A
C3091      C3092   1.408       .  A
C3091      H3096   1.083       .  S
C3092      C3093   1.409       .  A
C3092      H3097   1.084       .  S
C3093      C3094   1.406       .  A
C3094      H3098   1.083       .  S
C3099      C3100   1.404       .  A
C3099      C3104   1.393       .  A
C3099      H3105   1.083       .  S
C3100      C3101   1.409       .  A
C3101      C3102   1.407       .  A
C3101      H3106   1.083       .  S
C3102      C3103   1.406       .  A
C3102      H3107   1.083       .  S
C3103      C3104   1.404       .  A
C3104      H3108   1.084       .  S
C3109      C3110   1.405       .  A
C3109      C3114   1.404       .  A
C3109      H3115   1.083       .  S
C3110      C3111   1.403       .  A
C3111      C3112   1.391       .  A
C3111      H3116   1.083       .  S
C3112      C3113   1.404       .  A
C3112      H3117   1.083       .  S
C3113      C3114   1.407       .  A
C3114      H3118   1.083       .  S
C3119      C3120   1.407       .  A
C3119      C3124   1.404       .  A
C3119      H3125   1.084       .  S
C3120      C3121   1.404       .  A
C3121      C3122   1.404       .  A
C3121      H3126   1.083       .  S
C3122      C3123   1.408       .  A
C3122      H3127   1.084       .  S
C3123      C3124   1.405       .  A
C3124      H3128   1.083       .  S
C3129      C3130   1.407       .  A
C3129      C3134   1.400       .  A
C3129      H3135   1.083       .  S
C3130      C3131   1.399       .  A
C3131      C3132   1.391       .  A
C3131      H3136   1.084       .  S
C3132      C3133   1.404       .  A
C3132      H3137   1.083       .  S
C3133      C3134   1.403       .  A
C3134      H3138   1.083       .  S
C3139      C3140   1.408       .  A
C3139      C3144   1.393       .  A
C3139      H3145   1.083       .  S
C3140      C3141   1.395       .  A
C3141      C3142   1.393       .  A
C3141      H3146   1.084       .  S
C3142      C3143   1.413       .  A
C3142      H3147   1.083       .  S
C3143      C3144   1.399       .  A
C3144      H3148   1.083       .  S
C3149      C3150   1.405       .  A
C3149      C3154   1.396       .  A
C3149      H3155   1.082       .  S
C3150      C3151   1.402       .  A
C3151      C3152   1.397       .  A
C3151      H3156   1.083       .  S
C3152      C3153   1.408       .  A
C3152      H3157   1.084       .  S
C3153      C3154   1.403       .  A
C3154      H3158   1.083       .  S
C3159      C3160   1.403       .  A
C3159      C3164   1.394       .  A
C3159      H3165   1.083       .  S
C3160      C3161   1.405       .  A
C3161      C3162   1.400       .  A
C3161      H3166   1.084       .  S
C3162      C3163   1.403       .  A
C3162      H3167   1.083       .  S
C3163      C3164   1.401       .  A
C3164      H3168   1.083       .  S
C3169      C3170   1.408       .  A
C3169      C3174   1.403       .  A
C3169      H3175   1.084       .  S
C3170      C3171   1.401       .  A
C3171      C3172   1.402       .  A
C3171      H3176   1.083       .  S
C3172      C3173   1.410       .  A
C3172      H3177   1.084       .  S
C3173      C3174   1.402       .  A
C3174      H3178   1.083       .  S
C3179      C3180   1.405       .  A
C3179      C3184   1.392       .  A
C3179      H3185   1.083       .  S
C3180      C3181   1.405       .  A
C3181      C3182   1.400       .  A
C3181      H3186   1.083       .  S
C3182      C3183   1.405       .  A
C3182      H3187   1.083       .  S
C3183      C3184   1.401       .  A
C3184      H3188   1.084       .  S
C3189      C3190   1.395       .  A
C3189      C3194   1.390       .  A
C3189      H3195   1.084       .  S
C3190      C3191   1.406       .  A
C3191      C3192   1.391       .  A
C3191      H3196   1.083       .  S
C3192      C3193   1.399       .  A
C3192      H3197   1.083       .  S
C3193      C3194   1.409       .  A
C3194      H3198   1.083       .  S
C3199      C3204   1.402       .  A
C3199      H3205   1.083       .  S
C3200      C3201   1.398       .  A
C3201      C3202   1.401       .  A
C3201      H3206   1.083       .  S
C3202      H3207   1.083       .  S
C3203      C3204   1.399       .  A
C3204      H3208   1.083       .  S
C3209      C3210   1.405       .  A
C3209      C3214   1.402       .  A
C3209      H3215   1.083       .  S
C3210      C3211   1.405       .  A
C3211      C3212   1.393       .  A
C3211      H3216   1.083       .  S
C3212      C3213   1.402       .  A
C3212      H3217   1.084       .  S
C3213      C3214   1.405       .  A
C3214      H3218   1.083       .  S
C3219      C3220   1.402       .  A
C3219      C3224   1.399       .  A
C3219      H3225   1.084       .  S
C3220      C3221   1.404       .  A
C3221      C3222   1.392       .  A
C3221      H3226   1.083       .  S
C3222      C3223   1.403       .  A
C3222      H3227   1.084       .  S
C3223      C3224   1.406       .  A
C3224      H3228   1.082       .  S
C3229      C3230   1.406       .  A
C3229      C3234   1.401       .  A
C3229      H3235   1.084       .  S
C3230      C3231   1.400       .  A
C3231      C3232   1.394       .  A
C3231      H3236   1.084       .  S
C3232      C3233   1.406       .  A
C3232      H3237   1.083       .  S
C3233      C3234   1.403       .  A
C3234      H3238   1.083       .  S
C3239      C3240   1.401       .  A
C3239      C3244   1.391       .  A
C3239      H3245   1.083       .  S
C3240      C3241   1.412       .  A
C3241      C3242   1.393       .  A
C3241      H3246   1.083       .  S
C3242      C3243   1.396       .  A
C3242      H3247   1.083       .  S
C3243      C3244   1.406       .  A
C3244      H3248   1.084       .  S
C3249      C3250   1.405       .  A
C3249      C3254   1.405       .  A
C3249      H3255   1.083       .  S
C3250      C3251   1.408       .  A
C3251      C3252   1.411       .  A
C3251      H3256   1.083       .  S
C3252      C3253   1.408       .  A
C3252      H3257   1.083       .  S
C3253      C3254   1.409       .  A
C3254      H3258   1.083       .  S
C3259      C3260   1.407       .  A
C3259      C3264   1.404       .  A
C3259      H3265   1.083       .  S
C3260      C3261   1.405       .  A
C3261      C3262   1.394       .  A
C3261      H3266   1.083       .  S
C3262      C3263   1.405       .  A
C3262      H3267   1.083       .  S
C3263      C3264   1.406       .  A
C3264      H3268   1.083       .  S
C3269      C3270   1.402       .  A
C3269      C3274   1.396       .  A
C3269      H3275   1.084       .  S
C3270      C3271   1.405       .  A
C3271      C3272   1.395       .  A
C3271      H3276   1.083       .  S
C3272      C3273   1.402       .  A
C3272      H3277   1.084       .  S
C3273      C3274   1.407       .  A
C3274      H3278   1.083       .  S
C3279      C3280   1.407       .  A
C3279      C3284   1.405       .  A
C3279      H3285   1.084       .  S
C3280      C3281   1.405       .  A
C3281      C3282   1.407       .  A
C3281      H3286   1.083       .  S
C3282      C3283   1.406       .  A
C3282      H3287   1.084       .  S
C3283      C3284   1.405       .  A
C3284      H3288   1.083       .  S
C3289      C3290   1.404       .  A
C3289      C3294   1.398       .  A
C3289      H3295   1.084       .  S
C3290      C3291   1.400       .  A
C3291      C3292   1.392       .  A
C3291      H3296   1.084       .  S
C3292      C3293   1.404       .  A
C3292      H3297   1.083       .  S
C3293      C3294   1.404       .  A
C3294      H3298   1.083       .  S
C3299      C3300   1.411       .  A
C3299      C3304   1.392       .  A
C3299      H3305   1.083       .  S
C3300      C3301   1.399       .  A
C3301      C3302   1.395       .  A
C3301      H3306   1.083       .  S
C3302      C3303   1.409       .  A
C3302      H3307   1.084       .  S
C3303      C3304   1.395       .  A
C3304      H3308   1.083       .  S
C3309      C3310   1.411       .  A
C3309      C3314   1.414       .  A
C3309      H3315   1.083       .  S
C3310      C3311   1.409       .  A
C3311      C3312   1.407       .  A
C3311      H3316   1.083       .  S
C3312      C3313   1.408       .  A
C3312      H3317   1.084       .  S
C3313      C3314   1.411       .  A
C3314      H3318   1.082       .  S
C3319      C3320   1.409       .  A
C3319      C3324   1.406       .  A
C3319      H3325   1.083       .  S
C3320      C3321   1.408       .  A
C3321      C3322   1.398       .  A
C3321      H3326   1.082       .  S
C3322      C3323   1.403       .  A
C3322      H3327   1.084       .  S
C3323      C3324   1.407       .  A
C3324      H3328   1.083       .  S
