geometry optimzed in LAMMPS
_audit_creation_date              2020-11-30 
_audit_creation_method            'lammps2cif' 
_symmetry_space_group_name_H-M    'P1' 
_symmetry_Int_Tables_number       1 
_symmetry_cell_setting            triclinic 
loop_ 
_symmetry_equiv_pos_as_xyz 
  x,y,z 
_cell_length_a                    63.36549803858306 
_cell_length_b                    61.606993209945095 
_cell_length_c                    35.09455773812464 
_cell_angle_alpha                 88.57524618164925 
_cell_angle_beta                  90.11599762008407 
_cell_angle_gamma                 91.06860151796441 
loop_ 
_atom_site_label 
_atom_site_type_symbol 
_atom_site_fract_x 
_atom_site_fract_y 
_atom_site_fract_z 
_atom_site_charge 
O1          O  0.33112687  0.13892077  0.12515980    -0.81140
O2          O  0.29228839  0.23096615  0.09624390    -0.65830
O3          O  0.32538590  0.18320433  0.12343379    -1.12440
C4          C  0.26627542  0.16724312  0.19954552     1.05740
O5          O  0.28677877  0.23776551  0.15691561    -0.79040
O6          O  0.29052750  0.21027109  0.21655744    -0.66620
Ni7        Ni  0.33202054  0.16270716  0.08652629     1.34870
C8          C  0.31045441  0.21061521  0.21439694     0.84480
O9          O  0.32946834  0.21691022  0.07374864    -0.79580
O10         O  0.33575497  0.18531107  0.04606467    -0.89860
C11         C  0.29162988  0.24416195  0.12328219     0.84050
O12         O  0.30290420  0.15726767  0.07157162    -0.68060
O13         O  0.25845232  0.18528126  0.18836393    -0.87350
C14         C  0.28988268  0.17150917  0.05957404     0.84880
C15         C  0.33686502  0.20620468  0.04664700     1.06450
H16         H  0.27790779  0.18555854  0.12650831     0.38250
O17         O  0.28821101  0.19386795  0.14054675    -1.10000
O18         O  0.31982365  0.19683427  0.19411227    -0.66660
Ni19       Ni  0.30675617  0.17397734  0.16307782     1.26350
O20         O  0.29317290  0.19170620  0.06559926    -0.66880
O21         O  0.28622649  0.16400010  0.20090070    -0.79180
C22         C  0.33327873  0.13858491  0.16176978     0.84270
O23         O  0.32635929  0.15369325  0.18214505    -0.66350
Ni24       Ni  0.27255798  0.21140839  0.17269925     1.27450
Ni25       Ni  0.30837499  0.20618770  0.10693790     1.26060
H26         H  0.33841160  0.18895067  0.13384391     0.38810
O27         O  0.25676543  0.18195684  0.33915928    -0.81140
O28         O  0.16171351  0.17414561  0.32618760    -0.65830
O29         O  0.21751087  0.19490226  0.34700579    -1.12440
C30         C  0.22015679  0.15320329  0.45547862     1.05740
O31         O  0.15414814  0.15661846  0.38185005    -0.79040
O32         O  0.17644845  0.18922440  0.42160514    -0.66620
Ni33       Ni  0.23815374  0.19771887  0.30782315     1.34870
C34         C  0.19297505  0.20016775  0.43018221     0.84480
O35         O  0.18624796  0.20871495  0.29611381    -0.79580
O36         O  0.21977103  0.21385113  0.27548304    -0.89860
C37         C  0.14963314  0.16197445  0.34710383     0.84050
O38         O  0.23158092  0.17143100  0.28501474    -0.68060
O39         O  0.20060286  0.15815464  0.45772770    -0.87350
C40         C  0.21523389  0.15952246  0.28251785     0.84880
C41         C  0.20026200  0.21859322  0.27459660     1.06450
H42         H  0.19755667  0.14825690  0.36179186     0.38250
O43         O  0.19610045  0.16220437  0.37340928    -1.10000
O44         O  0.21156504  0.19359718  0.42199745    -0.66660
Ni45       Ni  0.22311768  0.17314033  0.38602080     1.26350
O46         O  0.19765178  0.16427020  0.29698789    -0.66880
O47         O  0.22803835  0.15100017  0.42309946    -0.79180
C48         C  0.26001161  0.19205377  0.36918016     0.84270
O49         O  0.25061539  0.18454857  0.39820307    -0.66350
Ni50       Ni  0.17812650  0.15846752  0.41712655     1.27450
Ni51       Ni  0.18991699  0.18490236  0.33496902     1.26060
H52         H  0.21633534  0.20902426  0.35811359     0.38810
O53         O  0.35529087  0.33330040  0.34382769    -0.81140
O54         O  0.26325240  0.29319062  0.32541676    -0.65830
O55         O  0.31178762  0.32737705  0.34993162    -1.12440
C56         C  0.32246882  0.26805305  0.43796492     1.05740
O57         O  0.25888548  0.29262093  0.38567551    -0.79040
O58         O  0.28253332  0.29845274  0.44781032    -0.66620
Ni59       Ni  0.33071931  0.33517056  0.30975633     1.34870
C60         C  0.28701243  0.31830309  0.44228072     0.84480
O61         O  0.27775756  0.33178609  0.30477867    -0.79580
O62         O  0.30734283  0.34120723  0.27362002    -0.89860
C63         C  0.25549435  0.28377981  0.35436354     0.84050
O64         O  0.33445591  0.30532960  0.29403672    -0.68060
O65         O  0.30346729  0.26205838  0.43146661    -0.87350
C66         C  0.32004916  0.29110413  0.28771227     0.84880
C67         C  0.28729995  0.34260069  0.27906434     1.06450
H68         H  0.30537296  0.27792958  0.35938850     0.38250
O69         O  0.29924929  0.28972525  0.37267912    -1.10000
O70         O  0.30249726  0.32449585  0.42167608    -0.66660
Ni71       Ni  0.32111626  0.30805346  0.38964276     1.26350
O72         O  0.30083043  0.29441694  0.29610043    -0.66880
O73         O  0.33002037  0.28711029  0.42918559    -0.79180
C74         C  0.35669308  0.33563441  0.38010833     0.84270
O75         O  0.34310591  0.32738564  0.40307989    -0.66350
Ni76       Ni  0.28073021  0.27722574  0.40963172     1.27450
Ni77       Ni  0.28784282  0.31030338  0.33692813     1.26060
H78         H  0.30702863  0.34082567  0.36027788     0.38810
O79         O  0.15412821  0.33321328  0.12312391    -0.81140
O80         O  0.25004326  0.31103635  0.12852775    -0.65830
O81         O  0.19608892  0.33313719  0.11122404    -1.12440
C82         C  0.19100195  0.27024975  0.03536916     1.05740
O83         O  0.25375473  0.30243603  0.06836867    -0.79040
O84         O  0.22250813  0.30039611  0.01798256    -0.66620
Ni85       Ni  0.17949214  0.33895600  0.15383791     1.34870
C86         C  0.21891381  0.32056152  0.01830727     0.84480
O87         O  0.23102111  0.34710592  0.14492330    -0.79580
O88         O  0.20423944  0.34757050  0.18560629    -0.89860
C89         C  0.26170862  0.30825132  0.09985688     0.84050
O90         O  0.18002343  0.30921871  0.17317782    -0.68060
O91         O  0.20575544  0.26503988  0.05793430    -0.87350
C92         C  0.19684845  0.29901806  0.18135141     0.84880
C93         C  0.22347880  0.35255846  0.17624920     1.06450
H94         H  0.20740405  0.28635298  0.11444941     0.38250
O95         O  0.21227821  0.29733637  0.09636337    -1.10000
O96         O  0.20500117  0.32800758  0.04015175    -0.66660
Ni97       Ni  0.18808942  0.31107630  0.07655627     1.26350
O98         O  0.21486955  0.30644713  0.16987019    -0.66880
O99         O  0.18162263  0.28852467  0.03832424    -0.79180
C100        C  0.15122097  0.33464798  0.08668507     0.84270
O101        O  0.16399614  0.32677946  0.06268501    -0.66350
Ni102      Ni  0.22970257  0.28347157  0.06268287     1.27450
Ni103      Ni  0.22249939  0.32170203  0.12167993     1.26060
H104        H  0.19807424  0.34684915  0.09758811     0.38810
O105        O  0.59174284  0.90322020  0.21175538    -0.81140
O106        O  0.53575277  0.98732444  0.20105065    -0.65830
O107        O  0.57428579  0.94237757  0.22175672    -1.12440
C108        C  0.51825456  0.91943905  0.30792343     1.05740
O109        O  0.53695884  0.98982550  0.26176433    -0.79040
O110        O  0.54456135  0.96420121  0.32174936    -0.66620
Ni111      Ni  0.58246639  0.92688259  0.17767120     1.34870
C112        C  0.56337329  0.95797167  0.32211108     0.84480
O113        O  0.57345421  0.97816728  0.17493146    -0.79580
O114        O  0.57526738  0.94984839  0.13867570    -0.89860
C115        C  0.52705752  0.99313191  0.23113641     0.84050
O116        O  0.55459938  0.91469291  0.17338992    -0.68060
O117        O  0.51130594  0.93874946  0.30426226    -0.87350
C118        C  0.53856465  0.92644630  0.16707371     0.84880
C119        C  0.57366915  0.97043797  0.14226267     1.06450
H120        H  0.52558930  0.94182601  0.23355114     0.38250
O121        O  0.53712054  0.94901537  0.24628662    -1.10000
O122        O  0.57056413  0.94453047  0.29858711    -0.66660
Ni123      Ni  0.55635742  0.92760635  0.25943812     1.26350
O124        O  0.53915590  0.94705622  0.17244077    -0.66880
O125        O  0.53656393  0.91363024  0.29597482    -0.79180
C126        C  0.58962133  0.89735212  0.24705652     0.84270
O127        O  0.57638986  0.90577369  0.26939676    -0.66350
Ni128      Ni  0.52380910  0.96479882  0.28388691     1.27450
Ni129      Ni  0.55496726  0.96432152  0.21019715     1.26060
H130        H  0.58670945  0.94862946  0.23352612     0.38810
O131        O  0.48109690  0.03612200  0.45581407    -0.81140
O132        O  0.55775112  0.07852619  0.43380309    -0.65830
O133        O  0.51999039  0.03727289  0.47512110    -1.12440
C134        C  0.50301270  0.08397383  0.06653945     1.05740
O135        O  0.56828088  0.09007088  0.99139984    -0.79040
O136        O  0.55360870  0.05738942  0.04046141    -0.66620
Ni137      Ni  0.50480580  0.01944534  0.44255608     1.34870
C138        C  0.54087625  0.04270256  0.05316404     0.84480
O139        O  0.55047430  0.03516962  0.41937564    -0.79580
O140        O  0.53022165  0.00506111  0.43148166    -0.89860
C141        C  0.57024030  0.08930945  0.45499296     0.84050
O142        O  0.50877694  0.03479320  0.39616002    -0.68060
O143        O  0.52326780  0.08534349  0.06777781    -0.87350
C144        C  0.50626553  0.05481775  0.39377117     0.84880
C145        C  0.54731152  0.01430336  0.41931928     1.06450
H146        H  0.52114025  0.08953845  0.47531705     0.38250
O147        O  0.52710329  0.07708679  0.48838406    -1.10000
O148        O  0.52087256  0.04460027  0.04851552    -0.66660
Ni149      Ni  0.50550720  0.05804698  0.00533316     1.26350
O150        O  0.51677647  0.06724178  0.41576562    -0.66880
O151        O  0.49355748  0.07929365  0.03599232    -0.79180
C152        C  0.47627440  0.02867412  0.48840404     0.84270
O153        O  0.48209804  0.03930086  0.01698757    -0.66350
Ni154      Ni  0.54525428  0.08654688  0.02782907     1.27450
Ni155      Ni  0.53854932  0.05723028  0.45268866     1.26060
H156        H  0.52813631  0.02745427  0.49078543     0.38810
O157        O  0.40093293  0.87144820  0.49830547    -0.81140
O158        O  0.48196442  0.92883430  0.46240746    -0.65830
O159        O  0.44085799  0.88821114  0.49730585    -1.12440
C160        C  0.41963293  0.94939058  0.06902019     1.05740
O161        O  0.48613930  0.93330102  0.02279000    -0.79040
O162        O  0.46193516  0.93174975  0.08642703    -0.66620
Ni163      Ni  0.42236974  0.87743455  0.45921636     1.34870
C164        C  0.46325280  0.91150845  0.09011406     0.84480
O165        O  0.47289065  0.88826479  0.44648693    -0.79580
O166        O  0.44297839  0.88064663  0.41672793    -0.89860
C167        C  0.48961203  0.93984552  0.48902504     0.84050
O168        O  0.41123789  0.90579350  0.44759741    -0.68060
O169        O  0.43585147  0.95954528  0.05523194    -0.87350
C170        C  0.42241532  0.92175795  0.43467332     0.84880
C171        C  0.46320725  0.88274374  0.41682549     1.06450
H172        H  0.43674887  0.93717416  0.99611783     0.38250
O173        O  0.44622996  0.92815084  0.01035106    -1.10000
O174        O  0.45202233  0.89876310  0.06975211    -0.66660
Ni175      Ni  0.42922322  0.90722670  0.03424124     1.26350
O176        O  0.44266009  0.92153776  0.43727081    -0.66880
O177        O  0.41720465  0.92846825  0.06872462    -0.79180
C178        C  0.39970948  0.87226548  0.03490571     0.84270
O179        O  0.41153992  0.88466577  0.05471901    -0.66350
Ni180      Ni  0.46165393  0.94741252  0.03976746     1.27450
Ni181      Ni  0.46056098  0.90866383  0.47798990     1.26060
H182        H  0.44805509  0.87627304  0.50970828     0.38810
O183        O  0.43200815  0.97691801  0.22379270    -0.81140
O184        O  0.39129772  0.05897081  0.21665999    -0.65830
O185        O  0.43144301  0.01739878  0.24122882    -1.12440
C186        C  0.39192327  0.99334529  0.34127626     1.05740
O187        O  0.37699646  0.06324032  0.27472458    -0.79040
O188        O  0.41320392  0.04997559  0.31542067    -0.66620
Ni189      Ni  0.44536010  0.00233530  0.20331915     1.34870
C190        C  0.42913846  0.03806843  0.32173063     0.84480
O191        O  0.43090037  0.05227553  0.19026429    -0.79580
O192        O  0.45778248  0.02880108  0.18438676    -0.89860
C193        C  0.37886973  0.06846486  0.23891596     0.84050
O194        O  0.42514487  0.00340504  0.16418675    -0.68060
O195        O  0.39077294  0.01397471  0.34641541    -0.87350
C196        C  0.40579942  0.00769060  0.16519585     0.84880
C197        C  0.44956906  0.04744499  0.17888608     1.06450
H198        H  0.38152632  0.01690023  0.25274077     0.38250
O199        O  0.39388708  0.02320117  0.26463949    -1.10000
O200        O  0.42831927  0.01750818  0.31589472    -0.66660
Ni201      Ni  0.41329342  0.00131760  0.27573920     1.26350
O202        O  0.39795238  0.02022571  0.18938754    -0.66880
O203        O  0.39434389  0.98651660  0.30832474    -0.79180
C204        C  0.44133662  0.97269425  0.25471351     0.84270
O205        O  0.43250809  0.97838558  0.28473671    -0.66350
Ni206      Ni  0.38516478  0.03838548  0.30846815     1.27450
Ni207      Ni  0.41169134  0.03807568  0.22738052     1.26060
H208        H  0.44251510  0.02482043  0.25470337     0.38810
O209        O  0.92581321  0.88606126  0.24606499    -0.81140
O210        O  0.94782287  0.98318923  0.28183710    -0.65830
O211        O  0.92588840  0.93002997  0.24683788    -1.12440
C212        C  0.98510007  0.93821909  0.15940517     1.05740
O213        O  0.94744888  0.99097616  0.22208270    -0.79040
O214        O  0.94983927  0.97033540  0.15630872    -0.66620
Ni215      Ni  0.92125555  0.90799334  0.28457981     1.34870
C216        C  0.93134418  0.96267603  0.15901495     0.84480
O217        O  0.91348816  0.96027285  0.29485658    -0.79580
O218        O  0.91422027  0.92852062  0.32578501    -0.89860
C219        C  0.95333227  0.99581229  0.25498932     0.84050
O220        O  0.95044587  0.90749931  0.29986726    -0.68060
O221        O  0.98825243  0.95670450  0.17427539    -0.87350
C222        C  0.96032926  0.92393407  0.31270869     0.84880
C223        C  0.90924040  0.94872411  0.32382656     1.06450
H224        H  0.97227361  0.94579286  0.24428073     0.38250
O225        O  0.95999883  0.95080760  0.23056677    -1.10000
O226        O  0.92745457  0.94519798  0.17764684    -0.66660
Ni227      Ni  0.94661345  0.92704057  0.20732325     1.26350
O228        O  0.95385840  0.94324323  0.30638061    -0.66880
O229        O  0.96855908  0.92592535  0.16657417    -0.79180
C230        C  0.92394292  0.88678522  0.20944287     0.84270
O231        O  0.93178066  0.90233428  0.18875651    -0.66350
Ni232      Ni  0.96828984  0.97441192  0.19812800     1.27450
Ni233      Ni  0.93705268  0.95610695  0.26485921     1.26060
H234        H  0.91219639  0.93288655  0.23582602     0.38810
O235        O  0.90634874  0.09061451  0.47242864    -0.81140
O236        O  0.95179562  0.00041781  0.49018030    -0.65830
O237        O  0.91797776  0.04987736  0.49547265    -1.12440
C238        C  0.97509080  0.07575571  0.07640117     1.05740
O239        O  0.95697647  0.00318605  0.05013180    -0.79040
O240        O  0.94803475  0.03393829  0.10028030    -0.66620
Ni241      Ni  0.90931039  0.06247327  0.44818555     1.34870
C242        C  0.92856289  0.03534226  0.09307654     0.84480
O243        O  0.91455659  0.00985304  0.46558291    -0.79580
O244        O  0.90879921  0.03472725  0.42040811    -0.89860
C245        C  0.96364335  0.99735885  0.51824875     0.84050
O246        O  0.93801129  0.06885792  0.43253965    -0.68060
O247        O  0.98229902  0.05669559  0.07493447    -0.87350
C248        C  0.95238226  0.05471053  0.42997072     0.84880
C249        C  0.90849516  0.01482315  0.43248150     1.06450
H250        H  0.96620158  0.04887489  0.00392665     0.38250
O251        O  0.95531758  0.04297925  0.02043284    -1.10000
O252        O  0.92165743  0.04883337  0.06845526    -0.66660
Ni253      Ni  0.93648487  0.06564284  0.02921812     1.26350
O254        O  0.95025259  0.03577812  0.44579265    -0.66880
O255        O  0.95643380  0.08091457  0.06418155    -0.79180
C256        C  0.90492311  0.09607680  0.00754508     0.84270
O257        O  0.91608270  0.08752579  0.03414555    -0.66350
Ni258      Ni  0.96935928  0.02992587  0.06307590     1.27450
Ni259      Ni  0.93515525  0.02561015  0.49200265     1.26060
H260        H  0.90513430  0.04539465  0.50848553     0.38810
O261        O  0.05676672  0.00444936  0.45167813    -0.81140
O262        O  0.08767120  0.91506298  0.44735287    -0.65830
O263        O  0.05417046  0.96278809  0.47109081    -1.12440
C264        C  0.10318761  0.97987158  0.06315392     1.05740
O265        O  0.09952327  0.90764774  0.00693580    -0.79040
O266        O  0.06977976  0.92859800  0.05204778    -0.66620
Ni267      Ni  0.04186752  0.98043475  0.43216750     1.34870
C268        C  0.05673227  0.94352631  0.05877805     0.84480
O269        O  0.04892037  0.92841431  0.42005425    -0.79580
O270        O  0.02668295  0.95649852  0.41271436    -0.89860
C271        C  0.09814619  0.90351781  0.47116362     0.84050
O272        O  0.06282865  0.97815830  0.39443375    -0.68060
O273        O  0.10087282  0.95947702  0.07130483    -0.87350
C274        C  0.08146305  0.97138807  0.39743063     0.84880
C275        C  0.03160608  0.93689983  0.40751714     1.06450
H276        H  0.10364455  0.95455464  0.47989049     0.38250
O277        O  0.09068019  0.95039503  0.49280806    -1.10000
O278        O  0.06014948  0.96321791  0.04700618    -0.66660
Ni279      Ni  0.07584390  0.97562906  0.00268778     1.26350
O280        O  0.08651738  0.95562334  0.41934183    -0.66880
O281        O  0.09817863  0.98726873  0.03089416    -0.79180
C282        C  0.05056486  0.00875898  0.48463014     0.84270
O283        O  0.06140721  0.00169679  0.01187351    -0.66350
Ni284      Ni  0.09863177  0.93404450  0.03718673     1.27450
Ni285      Ni  0.07034949  0.93895161  0.45708733     1.26060
H286        H  0.04268917  0.95711147  0.48644493     0.38810
O287        O  0.04646633  0.01170988  0.23322242    -0.81140
O288        O  0.07609918  0.09513092  0.29284276    -0.65830
O289        O  0.04075408  0.05135049  0.25166070    -1.12440
C290        C  0.09049542  0.05165712  0.15424073     1.05740
O291        O  0.07944651  0.11251625  0.23638263    -0.79040
O292        O  0.06308406  0.09686783  0.16626288    -0.66620
Ni293      Ni  0.03481112  0.02479139  0.27645984     1.34870
C294        C  0.04420253  0.08879525  0.16616579     0.84480
O295        O  0.03845371  0.07356609  0.31804082    -0.79580
O296        O  0.02356968  0.03946836  0.31932070    -0.89860
C297        C  0.08349618  0.11103912  0.27239367     0.84050
O298        O  0.06064044  0.02012887  0.30019370    -0.68060
O299        O  0.09952190  0.06899192  0.16610591    -0.87350
C300        C  0.07633521  0.03189680  0.30832153     0.84880
C301        C  0.02500544  0.05900453  0.33111880     1.06450
H302        H  0.08728655  0.05922579  0.23772720     0.38250
O303        O  0.07551058  0.06807241  0.23008373    -1.10000
O304        O  0.03924718  0.07192414  0.18547492    -0.66660
Ni305      Ni  0.05623640  0.04929349  0.20509528     1.26350
O306        O  0.07677976  0.05240886  0.30273264    -0.66880
O307        O  0.07105141  0.04822350  0.15881757    -0.79180
C308        C  0.03328568  0.01411574  0.20682390     0.84270
O309        O  0.03680749  0.02935542  0.18321108    -0.66350
Ni310      Ni  0.08775806  0.09088094  0.19975715     1.27450
Ni311      Ni  0.05817096  0.07215196  0.27465569     1.26060
H312        H  0.02729541  0.05796654  0.24653904     0.38810
O313        O  0.63746228  0.14676453  0.35388607    -0.81140
O314        O  0.70916949  0.21712045  0.34135382    -0.65830
O315        O  0.67560318  0.16763319  0.35935824    -1.12440
C316        C  0.64054806  0.21771037  0.43926774     1.05740
O317        O  0.70897280  0.22791973  0.40080594    -0.79040
O318        O  0.68436727  0.21164253  0.45421271    -0.66620
Ni319      Ni  0.66086253  0.15410275  0.31944347     1.34870
C320        C  0.69154598  0.19241675  0.45425877     0.84480
O321        O  0.70956083  0.17639865  0.31404404    -0.79580
O322        O  0.68424929  0.15851495  0.28256380    -0.89860
C323        C  0.71867960  0.22083721  0.37246442     0.84050
O324        O  0.64705061  0.18029420  0.30295152    -0.68060
O325        O  0.65041992  0.23181649  0.41893504    -0.87350
C326        C  0.65588858  0.19851131  0.29462617     0.84880
C327        C  0.70362270  0.16477178  0.28645332     1.06450
H328        H  0.66135850  0.21290351  0.36152041     0.38250
O329        O  0.67232402  0.20696332  0.37719819    -1.10000
O330        O  0.68373556  0.17809191  0.43216524    -0.66660
Ni331      Ni  0.65974129  0.18186624  0.39770399     1.26350
O332        O  0.67521027  0.20250551  0.30276148    -0.66880
O333        O  0.64381996  0.19721534  0.43657859    -0.79180
C334        C  0.63620515  0.14416816  0.39034991     0.84270
O335        O  0.64730403  0.15524774  0.41345030    -0.66350
Ni336      Ni  0.67969183  0.22984158  0.40931983     1.27450
Ni337      Ni  0.69169845  0.19235263  0.34621850     1.26060
H338        H  0.68470070  0.15700743  0.37124474     0.38810
O339        O  0.83281073  0.14490292  0.09830812    -0.81140
O340        O  0.77427144  0.21916070  0.13988912    -0.65830
O341        O  0.79691789  0.16908687  0.09868875    -1.12440
C342        C  0.82417230  0.21796761  0.00909376     1.05740
O343        O  0.78828678  0.24627510  0.10504113    -0.79040
O344        O  0.77106211  0.21471332  0.05470325    -0.66620
Ni345      Ni  0.81058342  0.15088027  0.13495898     1.34870
C346        C  0.77042783  0.19676887  0.03667841     0.84480
O347        O  0.76526455  0.17767786  0.14717361    -0.79580
O348        O  0.78782110  0.15425553  0.17384206    -0.89860
C349        C  0.77898814  0.23907362  0.13487982     0.84050
O350        O  0.82886521  0.17357760  0.15492244    -0.68060
O351        O  0.80487051  0.22147884  0.01241809    -0.87350
C352        C  0.82214440  0.19115452  0.16788659     0.84880
C353        C  0.76947946  0.16317496  0.17214647     1.06450
H354        H  0.81834038  0.21448600  0.10366922     0.38250
O355        O  0.80651631  0.20941820  0.08900701    -1.10000
O356        O  0.78738182  0.18558773  0.03096520    -0.66660
Ni357      Ni  0.81397363  0.18454374  0.06222639     1.26350
O358        O  0.80314104  0.19629765  0.16334429    -0.66880
O359        O  0.83172245  0.20156349  0.02652345    -0.79180
C360        C  0.83508193  0.14641703  0.06185475     0.84270
O361        O  0.82321808  0.15828111  0.04076790    -0.66350
Ni362      Ni  0.79595665  0.23251380  0.05917349     1.27450
Ni363      Ni  0.78549669  0.19416666  0.11912896     1.26060
H364        H  0.78596178  0.16066127  0.08638947     0.38810
O365        O  0.69836654  0.23381495  0.12119853    -0.81140
O366        O  0.64581810  0.31734535  0.15332083    -0.65830
O367        O  0.67090037  0.26592604  0.12196181    -1.12440
C368        C  0.70353340  0.30774425  0.02635563     1.05740
O369        O  0.64027910  0.33094634  0.09429113    -0.79040
O370        O  0.64579492  0.29479868  0.04918519    -0.66620
Ni371      Ni  0.68098521  0.24556856  0.15925348     1.34870
C372        C  0.65390529  0.27669642  0.04124113     0.84480
O373        O  0.63928263  0.27526278  0.17357222    -0.79580
O374        O  0.66409376  0.25497662  0.19941040    -0.89860
C375        C  0.63728018  0.33090188  0.13055853     0.84050
O376        O  0.70075707  0.26698717  0.17455913    -0.68060
O377        O  0.68431093  0.31372400  0.02211349    -0.87350
C378        C  0.69703209  0.28569601  0.18691301     0.84880
C379        C  0.64524737  0.26091229  0.19767092     1.06450
H380        H  0.68548819  0.31649853  0.11496794     0.38250
O381        O  0.67612302  0.30630428  0.10258249    -1.10000
O382        O  0.67341994  0.27332477  0.04676528    -0.66660
Ni383      Ni  0.69107507  0.28162293  0.08896634     1.26350
O384        O  0.67997859  0.29597244  0.17899618    -0.66880
O385        O  0.70942760  0.29831000  0.05674906    -0.79180
C386        C  0.71243094  0.24592765  0.10653459     0.84270
O387        O  0.70728323  0.25706426  0.07774718    -0.66350
Ni388      Ni  0.66233930  0.32051721  0.06045186     1.27450
Ni389      Ni  0.65824503  0.29130529  0.13918264     1.26060
H390        H  0.66013599  0.25841129  0.10789072     0.38810
O391        O  0.79006349  0.22543751  0.32376202    -0.81140
O392        O  0.82165813  0.32120957  0.28300586    -0.65830
O393        O  0.80923798  0.26434339  0.31913239    -1.12440
C394        C  0.77095381  0.30172901  0.41387759     1.05740
O395        O  0.83255058  0.32985027  0.34124783    -0.79040
O396        O  0.82760589  0.30281955  0.40415285    -0.66620
Ni397      Ni  0.79699733  0.24524692  0.28329321     1.34870
C398        C  0.82598555  0.28238923  0.40936156     0.84480
O399        O  0.83293088  0.28069328  0.25928385    -0.79580
O400        O  0.80564314  0.26246581  0.24074394    -0.89860
C401        C  0.83286965  0.33282516  0.30492762     0.84050
O402        O  0.77203499  0.26229667  0.28626543    -0.68060
O403        O  0.78569530  0.31629913  0.41061527    -0.87350
C404        C  0.77164446  0.28164903  0.27185565     0.84880
C405        C  0.82516923  0.26562081  0.23918526     1.06450
H406        H  0.78508317  0.30886041  0.32960720     0.38250
O407        O  0.79761962  0.30205976  0.33957440    -1.10000
O408        O  0.81193652  0.27106769  0.39352618    -0.66660
Ni409      Ni  0.79009250  0.27382740  0.35727735     1.26350
O410        O  0.78863006  0.29350135  0.26841621    -0.66880
O411        O  0.77073777  0.28438589  0.39456615    -0.79180
C412        C  0.78653831  0.22712565  0.35916771     0.84270
O413        O  0.78410721  0.24528876  0.37478475    -0.66350
Ni414      Ni  0.80924000  0.32188637  0.37521190     1.27450
Ni415      Ni  0.81494793  0.29249759  0.29902494     1.26060
H416        H  0.82190612  0.25820966  0.32993369     0.38810
O417        O  0.40513631  0.40418758  0.48320814    -0.81140
O418        O  0.44865378  0.49415260  0.01465960    -0.65830
O419        O  0.41829586  0.44572243  0.47956367    -1.12440
C420        C  0.48418124  0.43463832  0.41318357     1.05740
O421        O  0.45295518  0.49861772  0.45415993    -0.79040
O422        O  0.45825447  0.47510653  0.39195340    -0.66620
Ni423      Ni  0.40825648  0.42718076  0.02039498     1.34870
C424        C  0.44015081  0.46809598  0.38359994     0.84480
O425        O  0.41085490  0.47888824  0.02687168    -0.79580
O426        O  0.40941225  0.44922633  0.06204323    -0.89860
C427        C  0.45838463  0.50333803  0.48753524     0.84050
O428        O  0.43627579  0.41841338  0.03202716    -0.68060
O429        O  0.48964444  0.45378923  0.42370219    -0.87350
C430        C  0.45031168  0.43167441  0.04359792     0.84880
C431        C  0.40863345  0.47006770  0.05907788     1.06450
H432        H  0.46673334  0.45131022  0.48450453     0.38250
O433        O  0.45629035  0.45804396  0.46855727    -1.10000
O434        O  0.43005553  0.45400969  0.40442566    -0.66660
Ni435      Ni  0.44075383  0.43572642  0.44704872     1.26350
O436        O  0.44776106  0.45237589  0.04030839    -0.66880
O437        O  0.46514984  0.42667948  0.41683813    -0.79180
C438        C  0.41049849  0.40042691  0.44855938     0.84270
O439        O  0.42378337  0.41217650  0.42940633    -0.66350
Ni440      Ni  0.47216944  0.47716703  0.43848825     1.27450
Ni441      Ni  0.43376561  0.46919726  0.99842686     1.26060
H442        H  0.40653813  0.45088759  0.46451808     0.38810
O443        O  0.41690715  0.60824535  0.22812516    -0.81140
O444        O  0.48837405  0.55235686  0.18620755    -0.65830
O445        O  0.43691136  0.56903294  0.22962358    -1.12440
C446        C  0.47766848  0.58633557  0.33430360     1.05740
O447        O  0.50884213  0.55724891  0.23448627    -0.79040
O448        O  0.47267748  0.53692413  0.27675063    -0.66620
Ni449      Ni  0.41632018  0.58193282  0.19780859     1.34870
C450        C  0.45428719  0.53794921  0.29254100     0.84480
O451        O  0.44753152  0.54402594  0.16808412    -0.79580
O452        O  0.41381852  0.55501309  0.17017703    -0.89860
C453        C  0.50184824  0.54502529  0.20936555     0.84050
O454        O  0.43397498  0.59297141  0.15514839    -0.68060
O455        O  0.48013617  0.56675136  0.32681901    -0.87350
C456        C  0.45401544  0.59252495  0.15171609     0.84880
C457        C  0.42785308  0.54166820  0.15949498     1.06450
H458        H  0.48249723  0.58944992  0.23974892     0.38250
O459        O  0.47516834  0.57642742  0.24881711    -1.10000
O460        O  0.44572001  0.55637708  0.29877783    -0.66660
Ni461      Ni  0.44983941  0.58418598  0.27100926     1.26350
O462        O  0.46533673  0.58656108  0.17904865    -0.66880
O463        O  0.46501986  0.59777393  0.31381578    -0.79180
C464        C  0.41389358  0.60797495  0.26463997     0.84270
O465        O  0.42348566  0.59458999  0.28687381    -0.66350
Ni466      Ni  0.49344537  0.56055918  0.28044065     1.27450
Ni467      Ni  0.46213562  0.56047554  0.20761927     1.26060
H468        H  0.42984122  0.55600084  0.23916800     0.38810
O469        O  0.49029915  0.44449258  0.22433218    -0.81140
O470        O  0.57759278  0.41130464  0.17529029    -0.65830
O471        O  0.52472426  0.42713049  0.21085507    -1.12440
C472        C  0.56943942  0.46202491  0.30385049     1.05740
O473        O  0.58292295  0.39692200  0.23389735    -0.79040
O474        O  0.56520081  0.41136349  0.30671366    -0.66620
Ni475      Ni  0.50662947  0.44296154  0.17891926     1.34870
C476        C  0.54510280  0.41046599  0.30867514     0.84480
O477        O  0.53646067  0.40698151  0.14592649    -0.79580
O478        O  0.52099385  0.43778241  0.13314035    -0.89860
C479        C  0.58633910  0.39733629  0.19748869     0.84050
O480        O  0.52677083  0.46720410  0.18462322    -0.68060
O481        O  0.58432607  0.44994793  0.29224204    -0.87350
C482        C  0.54545339  0.46683025  0.16964729     0.84880
C483        C  0.52353087  0.41821929  0.12564021     1.06450
H484        H  0.56891924  0.44911959  0.22393767     0.38250
O485        O  0.56230928  0.43562234  0.23243913    -1.10000
O486        O  0.53426819  0.41543958  0.28011328    -0.66660
Ni487      Ni  0.53645590  0.44244997  0.25390617     1.26350
O488        O  0.55448464  0.44869883  0.16319901    -0.66880
O489        O  0.54990192  0.45821518  0.29555846    -0.79180
C490        C  0.49629864  0.45637253  0.25068778     0.84270
O491        O  0.50947340  0.44894578  0.27441672    -0.66350
Ni492      Ni  0.58287143  0.42305065  0.26450078     1.27450
Ni493      Ni  0.55064692  0.42059029  0.18984273     1.26060
H494        H  0.51762544  0.41372469  0.21865517     0.38810
O495        O  0.54821216  0.50406223  0.00898519    -0.81140
O496        O  0.57456870  0.59243503  0.03095613    -0.65830
O497        O  0.54392727  0.54456612  0.99433518    -1.12440
C498        C  0.59087611  0.53402027  0.40262191     1.05740
O499        O  0.59408764  0.59960627  0.47784029    -0.79040
O500        O  0.56336672  0.58505340  0.43024987    -0.66620
Ni501      Ni  0.52857894  0.52511775  0.02464501     1.34870
C502        C  0.54936824  0.57163821  0.41924144     0.84480
O503        O  0.53385734  0.57641683  0.04432792    -0.79580
O504        O  0.51052721  0.54807940  0.03959984    -0.89860
C505        C  0.58780327  0.60410921  0.01151159     0.84050
O506        O  0.54282928  0.52763999  0.07057040    -0.68060
O507        O  0.59004495  0.55478068  0.39983522    -0.87350
C508        C  0.56025312  0.53611934  0.07951141     0.84880
C509        C  0.51521292  0.56766545  0.04888377     1.06450
H510        H  0.59333855  0.55339609  0.49811825     0.38250
O511        O  0.58153915  0.55815303  0.48276166    -1.10000
O512        O  0.55195740  0.55094564  0.42302632    -0.66660
Ni513      Ni  0.56673778  0.53417029  0.46425542     1.26350
O514        O  0.56971751  0.55074251  0.05873406    -0.66880
O515        O  0.58981401  0.52527198  0.43505873    -0.79180
C516        C  0.54305493  0.49915091  0.47557175     0.84270
O517        O  0.55261708  0.50863439  0.44855960    -0.66350
Ni518      Ni  0.59137335  0.57659185  0.44140576     1.27450
Ni519      Ni  0.55861752  0.56780031  0.01476747     1.26060
H520        H  0.53315470  0.55079133  0.47841122     0.38810
O521        O  0.65829564  0.84717038  0.35295103    -0.81140
O522        O  0.75026248  0.80986255  0.37074925    -0.65830
O523        O  0.70000298  0.83852204  0.34374633    -1.12440
C524        C  0.69086518  0.77836933  0.25912329     1.05740
O525        O  0.75488900  0.80515834  0.31154161    -0.79040
O526        O  0.73080042  0.81317282  0.25127921    -0.66620
Ni527      Ni  0.68327495  0.84664939  0.38595508     1.34870
C528        C  0.72229404  0.83150805  0.25348779     0.84480
O529        O  0.73464016  0.84736829  0.38504865    -0.79580
O530        O  0.70717982  0.84899488  0.42286870    -0.89860
C531        C  0.75725691  0.79820070  0.34526273     0.84050
O532        O  0.67800461  0.81702405  0.40111902    -0.68060
O533        O  0.71034304  0.77483608  0.26428656    -0.87350
C534        C  0.69250699  0.80381560  0.41002819     0.84880
C535        C  0.72710649  0.85145306  0.41686653     1.06450
H536        H  0.70895704  0.78915536  0.34017088     0.38250
O537        O  0.71389055  0.80141828  0.32495780    -1.10000
O538        O  0.70539205  0.83462284  0.27155240    -0.66660
Ni539      Ni  0.68998935  0.81704243  0.30854174     1.26350
O540        O  0.71185993  0.80752640  0.40048495    -0.66880
O541        O  0.68115372  0.79481700  0.27216997    -0.79180
C542        C  0.65419501  0.84426428  0.31745839     0.84270
O543        O  0.66594815  0.83349166  0.29566208    -0.66350
Ni544      Ni  0.73251371  0.79021821  0.28781990     1.27450
Ni545      Ni  0.72475948  0.82401561  0.35713048     1.26060
H546        H  0.70393203  0.85191033  0.33044898     0.38810
O547        O  0.85562159  0.83633072  0.10501968    -0.81140
O548        O  0.76047679  0.80620985  0.08333524    -0.65830
O549        O  0.81274766  0.83186366  0.11160602    -1.12440
C550        C  0.81211016  0.77341409  0.20655215     1.05740
O551        O  0.75407875  0.80422682  0.14265992    -0.79040
O552        O  0.77696101  0.81047687  0.20439617    -0.66620
Ni553      Ni  0.83145270  0.83847370  0.07039707     1.34870
C554        C  0.78713742  0.82822178  0.20032089     0.84480
O555        O  0.77991536  0.84258676  0.06657003    -0.79580
O556        O  0.80880328  0.84340868  0.03171297    -0.89860
C557        C  0.75149899  0.79629856  0.11038803     0.84050
O558        O  0.83352209  0.80866027  0.05725728    -0.68060
O559        O  0.79282823  0.77062914  0.19785054    -0.87350
C560        C  0.81778169  0.79676030  0.04828859     0.84880
C561        C  0.78905216  0.84721801  0.03583607     1.06450
H562        H  0.79856176  0.78338937  0.12028615     0.38250
O563        O  0.79453968  0.79619324  0.13357773    -1.10000
O564        O  0.80466021  0.82997726  0.18319191    -0.66660
Ni565      Ni  0.81937216  0.81047827  0.15087082     1.26350
O566        O  0.79881967  0.80168509  0.05685090    -0.66880
O567        O  0.82420041  0.78864463  0.19215370    -0.79180
C568        C  0.85848337  0.83426221  0.14126532     0.84270
O569        O  0.84481005  0.82547621  0.16380545    -0.66350
Ni570      Ni  0.77351547  0.78745708  0.17014739     1.27450
Ni571      Ni  0.78686975  0.81898756  0.09767734     1.26060
H572        H  0.80980840  0.84569403  0.12265260     0.38810
O573        O  0.74527895  0.69682233  0.07085520    -0.81140
O574        O  0.65518015  0.67747890  0.05172148    -0.65830
O575        O  0.70544576  0.70611112  0.08291720    -1.12440
C576        C  0.70986601  0.65287343  0.17772113     1.05740
O577        O  0.64384030  0.66915413  0.11110903    -0.79040
O578        O  0.66737229  0.69366490  0.15953399    -0.66620
Ni579      Ni  0.72612715  0.71528614  0.04607394     1.34870
C580        C  0.68358051  0.70474589  0.16857386     0.84480
O581        O  0.67593689  0.71480135  0.02430267    -0.79580
O582        O  0.70686989  0.73381577  0.02146735    -0.89860
C583        C  0.64167293  0.66890129  0.07478032     0.84050
O584        O  0.72110553  0.69382028  0.00909089    -0.68060
O585        O  0.69023915  0.65708335  0.18200938    -0.87350
C586        C  0.71201611  0.67554407  0.01404451     0.84880
C587        C  0.68772552  0.73085664  0.01181724     1.06450
H588        H  0.68907582  0.65671564  0.09226933     0.38250
O589        O  0.68666140  0.67056231  0.10368834    -1.10000
O590        O  0.70226918  0.69926562  0.15950561    -0.66660
Ni591      Ni  0.71301980  0.68239819  0.11731345     1.26350
O592        O  0.69510992  0.67304302  0.03271442    -0.66880
O593        O  0.71945294  0.65821074  0.14764131    -0.79180
C594        C  0.74901256  0.70390264  0.10345907     0.84270
O595        O  0.74005827  0.69403738  0.13065677    -0.66350
Ni596      Ni  0.66779944  0.66421626  0.14457723     1.27450
Ni597      Ni  0.68044611  0.69243099  0.06511426     1.26060
H598        H  0.70161804  0.71868982  0.09708614     0.38810
O599        O  0.74465766  0.70031350  0.40504525    -0.81140
O600        O  0.83261879  0.66813115  0.41466673    -0.65830
O601        O  0.78547894  0.70255089  0.38924027    -1.12440
C602        C  0.76879369  0.65154598  0.29846956     1.05740
O603        O  0.83872586  0.65613956  0.35567706    -0.79040
O604        O  0.81870104  0.68517618  0.30924099    -0.66620
Ni605      Ni  0.76795838  0.71399856  0.42806360     1.34870
C606        C  0.80474214  0.69922496  0.30237835     0.84480
O607        O  0.81947635  0.70756247  0.44049998    -0.79580
O608        O  0.79099917  0.72812207  0.45134346    -0.89860
C609        C  0.84329069  0.65735380  0.39112125     0.84050
O610        O  0.76922018  0.69037089  0.46337599    -0.68060
O611        O  0.78859006  0.65326509  0.29136430    -0.87350
C612        C  0.77745113  0.67192800  0.46053664     0.84880
C613        C  0.81042295  0.72397309  0.45533689     1.06450
H614        H  0.79326815  0.65170664  0.38235048     0.38250
O615        O  0.79749680  0.66496068  0.36892666    -1.10000
O616        O  0.78553600  0.69646139  0.31336740    -0.66660
Ni617      Ni  0.77302699  0.68047559  0.35727822     1.26350
O618        O  0.79399170  0.66861676  0.44159432    -0.66880
O619        O  0.76149336  0.65781104  0.32931805    -0.79180
C620        C  0.74203591  0.70759476  0.37163196     0.84270
O621        O  0.74788124  0.69570195  0.34556985    -0.66350
Ni622      Ni  0.81311174  0.65605068  0.32580666     1.27450
Ni623      Ni  0.80910524  0.68587283  0.40390093     1.26060
H624        H  0.79052639  0.71477132  0.37386001     0.38810
O625        O  0.94060533  0.49251515  0.25086448    -0.81140
O626        O  0.89983183  0.40914421  0.26071703    -0.65830
O627        O  0.94112208  0.45131460  0.23798304    -1.12440
C628        C  0.90467543  0.47013282  0.13005980     1.05740
O629        O  0.88897026  0.40227106  0.20097984    -0.79040
O630        O  0.92551497  0.41546515  0.16296698    -0.66620
Ni631      Ni  0.95295260  0.46848804  0.27623937     1.34870
C632        C  0.94185409  0.42743863  0.15764285     0.84480
O633        O  0.93849781  0.41819732  0.29206290    -0.79580
O634        O  0.96470541  0.44337664  0.29937248    -0.89860
C635        C  0.88894909  0.39828692  0.23712265     0.84050
O636        O  0.93109073  0.46777840  0.31235797    -0.68060
O637        O  0.90358242  0.44939669  0.12712707    -0.87350
C638        C  0.91179777  0.46337971  0.30776415     0.84880
C639        C  0.95686355  0.42426812  0.30455097     1.06450
H640        H  0.89216610  0.44995248  0.21856278     0.38250
O641        O  0.90486998  0.44342858  0.20934395    -1.10000
O642        O  0.94157301  0.44808440  0.16272637    -0.66660
Ni643      Ni  0.92518097  0.46540604  0.19871417     1.26350
O644        O  0.90521264  0.44943201  0.28421390    -0.66880
O645        O  0.90827046  0.47864617  0.16156328    -0.79180
C646        C  0.95220213  0.49544465  0.22209610     0.84270
O647        O  0.94541734  0.48841706  0.19090574    -0.66350
Ni648      Ni  0.89751719  0.42628600  0.16653176     1.27450
Ni649      Ni  0.92074219  0.43048419  0.25097104     1.26060
H650        H  0.95272544  0.44390821  0.22711831     0.38810
O651        O  0.90678099  0.59591199  0.48564142    -0.81140
O652        O  0.98742956  0.53869726  0.00552899    -0.65830
O653        O  0.94643197  0.58022953  0.48125663    -1.12440
C654        C  0.92090690  0.52420550  0.39902800     1.05740
O655        O  0.98912688  0.53465500  0.44483214    -0.79040
O656        O  0.96379267  0.54266004  0.38329096    -0.66620
Ni657      Ni  0.92890208  0.58865827  0.02184503     1.34870
C658        C  0.96731549  0.56268586  0.38567348     0.84480
O659        O  0.97951728  0.57774549  0.03009414    -0.79580
O660        O  0.95010312  0.58373081  0.06200945    -0.89860
C661        C  0.99108266  0.52665981  0.47808526     0.84050
O662        O  0.91770921  0.55968703  0.02934200    -0.68060
O663        O  0.93672748  0.51310808  0.40987652    -0.87350
C664        C  0.92898642  0.54356367  0.03911463     0.84880
C665        C  0.97015618  0.58143319  0.06097316     1.06450
H666        H  0.94062656  0.53123896  0.47447524     0.38250
O667        O  0.94997782  0.54114340  0.46078217    -1.10000
O668        O  0.95654469  0.57407176  0.40819766    -0.66660
Ni669      Ni  0.93344259  0.56355137  0.44166740     1.26350
O670        O  0.94909414  0.54425601  0.03499812    -0.66880
O671        O  0.91971061  0.54495627  0.40332037    -0.79180
C672        C  0.90566795  0.59811182  0.44921602     0.84270
O673        O  0.91686537  0.58736515  0.42644090    -0.66350
Ni674      Ni  0.96336759  0.52344961  0.42603685     1.27450
Ni675      Ni  0.96608398  0.55918077  0.99522889     1.26060
H676        H  0.95368037  0.59293583  0.47068557     0.38810
O677        O  0.99191775  0.43553365  0.02992073    -0.81140
O678        O  0.07021275  0.39412574  0.04513272    -0.65830
O679        O  0.03180502  0.43535923  0.00938029    -1.12440
C680        C  0.01374134  0.39132520  0.41383820     1.05740
O681        O  0.07983049  0.38473157  0.48601388    -0.79040
O682        O  0.06499933  0.41905176  0.44135996    -0.66620
Ni683      Ni  0.01668442  0.45173546  0.04325088     1.34870
C684        C  0.05232411  0.43403892  0.43159921     0.84480
O685        O  0.06268205  0.43648297  0.06480012    -0.79580
O686        O  0.04248313  0.46617333  0.05535269    -0.89860
C687        C  0.08227716  0.38427298  0.02245021     0.84050
O688        O  0.02057900  0.43448683  0.08779507    -0.68060
O689        O  0.03399165  0.39124098  0.41119762    -0.87350
C690        C  0.01833858  0.41424352  0.08754342     0.84880
C691        C  0.05947930  0.45712164  0.06696319     1.06450
H692        H  0.03316540  0.38336206  0.50328729     0.38250
O693        O  0.03903684  0.39647644  0.49153176    -1.10000
O694        O  0.03232694  0.43102892  0.43555870    -0.66660
Ni695      Ni  0.01741451  0.41526673  0.47750898     1.26350
O696        O  0.02930680  0.40319246  0.06480745    -0.66880
O697        O  0.00496457  0.39469749  0.44530662    -0.79180
C698        C  0.98495498  0.44048502  0.49711042     0.84270
O699        O  0.99430268  0.43327087  0.46837839    -0.66350
Ni700      Ni  0.05653328  0.38919178  0.45037378     1.27450
Ni701      Ni  0.05075023  0.41538253  0.02907910     1.26060
H702        H  0.03982436  0.44604590  0.99476101     0.38810
O703        O  0.09675413  0.57411655  0.26612687    -0.81140
O704        O  0.04281258  0.48737561  0.29582727    -0.65830
O705        O  0.08015569  0.53314801  0.26471389    -1.12440
C706        C  0.02394021  0.54619081  0.17503852     1.05740
O707        O  0.04528136  0.48087283  0.23645587    -0.79040
O708        O  0.05290914  0.50230365  0.17226124    -0.66620
Ni709      Ni  0.08874210  0.55167413  0.30497846     1.34870
C710        C  0.07066011  0.51169371  0.16928128     0.84480
O711        O  0.08105458  0.49998237  0.31653102    -0.79580
O712        O  0.08295046  0.53020181  0.34811257    -0.89860
C713        C  0.03504854  0.47860310  0.26694000     0.84050
O714        O  0.06065000  0.56219872  0.30881981    -0.68060
O715        O  0.01805556  0.52639158  0.18127179    -0.87350
C716        C  0.04513075  0.54982828  0.31842702     0.84880
C717        C  0.08214832  0.50931037  0.34766347     1.06450
H718        H  0.03101954  0.52911057  0.25493406     0.38250
O719        O  0.04293011  0.52241002  0.24322640    -1.10000
O720        O  0.07623058  0.52775322  0.18913913    -0.66660
Ni721      Ni  0.06122154  0.54454761  0.22609152     1.26350
O722        O  0.04609490  0.52901741  0.31672957    -0.66880
O723        O  0.04106433  0.55469156  0.18824787    -0.79180
C724        C  0.09322173  0.57787378  0.23028434     0.84270
O725        O  0.07969025  0.56728914  0.21137625    -0.66350
Ni726      Ni  0.03128891  0.50296017  0.20833717     1.27450
Ni727      Ni  0.06154590  0.51071461  0.28106380     1.26060
H728        H  0.09251809  0.52700580  0.25341544     0.38810
O729        O  0.22884006  0.78884634  0.08030815    -0.81140
O730        O  0.32249911  0.80668412  0.08451127    -0.65830
O731        O  0.26841058  0.78101008  0.09932621    -1.12440
C732        C  0.25682933  0.82611889  0.19864877     1.05740
O733        O  0.32665356  0.82459967  0.13924551    -0.79040
O734        O  0.30371409  0.79181413  0.18015978    -0.66620
Ni735      Ni  0.25086863  0.77392407  0.05669744     1.34870
C736        C  0.28744066  0.78018963  0.18859003     0.84480
O737        O  0.30375361  0.76962409  0.05656221    -0.79580
O738        O  0.27257477  0.75815510  0.03241189    -0.89860
C739        C  0.33277553  0.81960870  0.10576013     0.84050
O740        O  0.25635545  0.79940826  0.02806323    -0.68060
O741        O  0.27642565  0.82271989  0.20511485    -0.87350
C742        C  0.27045816  0.81413540  0.02907179     0.84880
C743        C  0.29247288  0.75651015  0.03621761     1.06450
H744        H  0.28381080  0.82960789  0.10997764     0.38250
O745        O  0.28556879  0.81604633  0.12394519    -1.10000
O746        O  0.26895922  0.78490009  0.17563012    -0.66660
Ni747      Ni  0.25874162  0.80340065  0.13296515     1.26350
O748        O  0.28720935  0.81267028  0.04873811    -0.66880
O749        O  0.25018780  0.82597703  0.16486014    -0.79180
C750        C  0.22504360  0.78028086  0.11251120     0.84270
O751        O  0.23107405  0.79096814  0.14056432    -0.66350
Ni752      Ni  0.30091322  0.82223835  0.16958975     1.27450
Ni753      Ni  0.29542378  0.79344557  0.09040564     1.26060
H754        H  0.27052689  0.76763984  0.11365640     0.38810
O755        O  0.14583347  0.83129578  0.37324699    -0.81140
O756        O  0.19762374  0.74814440  0.34314640    -0.65830
O757        O  0.15814478  0.78908141  0.37402961    -1.12440
C758        C  0.21893198  0.81583074  0.43828745     1.05740
O759        O  0.20411628  0.74556011  0.40466651    -0.79040
O760        O  0.20356577  0.77394317  0.46177845    -0.66620
Ni761      Ni  0.14728999  0.80822156  0.33619399     1.34870
C762        C  0.18541141  0.76572442  0.46474046     0.84480
O763        O  0.15732174  0.75554089  0.32597526    -0.79580
O764        O  0.14643413  0.78598165  0.29673406    -0.89860
C765        C  0.20456547  0.73774612  0.37188752     0.84050
O766        O  0.17462240  0.81881753  0.31821468    -0.68060
O767        O  0.22872311  0.80037790  0.42277048    -0.87350
C768        C  0.18883629  0.80679802  0.30471770     0.84880
C769        C  0.14911317  0.76533368  0.29758743     1.06450
H770        H  0.20489166  0.79653664  0.36867689     0.38250
O771        O  0.19724938  0.78619588  0.38465168    -1.10000
O772        O  0.17079794  0.77567672  0.44612832    -0.66660
Ni773      Ni  0.17701935  0.80152797  0.41044822     1.26350
O774        O  0.18850811  0.78633911  0.31129071    -0.66880
O775        O  0.19858447  0.81560040  0.44285848    -0.79180
C776        C  0.14531630  0.83191364  0.40993062     0.84270
O777        O  0.15505674  0.81821736  0.43127798    -0.66350
Ni778      Ni  0.21737982  0.77256925  0.41396252     1.27450
Ni779      Ni  0.17793008  0.76966967  0.35553648     1.26060
H780        H  0.14670270  0.78121455  0.38664854     0.38810
O781        O  0.34973553  0.65343850  0.37979218    -0.81140
O782        O  0.25313445  0.65346016  0.41608942    -0.65830
O783        O  0.30803001  0.64611815  0.37899153    -1.12440
C784        C  0.29072557  0.70973847  0.30285042     1.05740
O785        O  0.24596160  0.65705093  0.35674527    -0.79040
O786        O  0.26639636  0.66985863  0.29353551    -0.66620
Ni787      Ni  0.32855919  0.64374247  0.41773406     1.34870
C788        C  0.27623184  0.65237081  0.29204974     0.84480
O789        O  0.28187729  0.62298950  0.42091100    -0.79580
O790        O  0.30852253  0.63137325  0.45773710    -0.89860
C791        C  0.24013002  0.65862488  0.39061578     0.84050
O792        O  0.32413092  0.67310410  0.43387383    -0.68060
O793        O  0.27336728  0.70857109  0.32132115    -0.87350
C794        C  0.30675186  0.67867517  0.44861119     0.84880
C795        C  0.29042201  0.62181051  0.45276043     1.06450
H796        H  0.28543062  0.68927730  0.38506261     0.38250
O797        O  0.28254976  0.67703542  0.36909909    -1.10000
O798        O  0.29337780  0.64973791  0.31016649    -0.66660
Ni799      Ni  0.30761439  0.67024773  0.34362966     1.26350
O800        O  0.28985189  0.66730922  0.44292907    -0.66880
O801        O  0.30518174  0.69511589  0.30646041    -0.79180
C802        C  0.34974354  0.65500401  0.34293582     0.84270
O803        O  0.33390548  0.66174387  0.32338999    -0.66350
Ni804      Ni  0.25893136  0.68336342  0.33900243     1.27450
Ni805      Ni  0.28116846  0.65026535  0.39779680     1.26060
H806        H  0.30812508  0.63262288  0.36552243     0.38810
O807        O  0.15263949  0.63576806  0.10859146    -0.81140
O808        O  0.24378444  0.68135052  0.09477736    -0.65830
O809        O  0.19500966  0.64696040  0.11788690    -1.12440
C810        C  0.17807515  0.70749076  0.19440936     1.05740
O811        O  0.24519569  0.68562964  0.15470803    -0.79040
O812        O  0.21953628  0.67904215  0.21298328    -0.66620
Ni813      Ni  0.17866382  0.63684945  0.07660199     1.34870
C814        C  0.21525888  0.65912140  0.20943164     0.84480
O815        O  0.23122947  0.64161989  0.08173736    -0.79580
O816        O  0.20427188  0.63271672  0.04415054    -0.89860
C817        C  0.24919045  0.69310420  0.12191281     0.84050
O818        O  0.17356888  0.66646277  0.05668033    -0.68060
O819        O  0.19696071  0.71447499  0.18958720    -0.87350
C820        C  0.18830786  0.68010986  0.04740152     0.84880
C821        C  0.22402063  0.63170266  0.05369106     1.06450
H822        H  0.19941221  0.69723014  0.11719049     0.38250
O823        O  0.20512919  0.68616381  0.13402155    -1.10000
O824        O  0.20035862  0.65261231  0.18851611    -0.66660
Ni825      Ni  0.18319236  0.66744095  0.15106909     1.26350
O826        O  0.20729508  0.67689408  0.05869485    -0.66880
O827        O  0.17168799  0.68847376  0.18522548    -0.79180
C828        C  0.15023598  0.63649107  0.14520981     0.84270
O829        O  0.16192500  0.64813655  0.16573286    -0.66350
Ni830      Ni  0.22132971  0.70009513  0.17263637     1.27450
Ni831      Ni  0.21890679  0.66421713  0.10577960     1.26060
H832        H  0.19956257  0.63409381  0.13166322     0.38810
C833        C  0.24078419  0.62094117  0.03149499    -0.05720
C834        C  0.26188984  0.62192954  0.04551635    -0.33150
C835        C  0.27921367  0.61909697  0.02157084     0.36100
C836        C  0.27566683  0.61416807  0.48349541    -0.06080
C837        C  0.25476676  0.60807810  0.47246447    -0.33050
C838        C  0.23736832  0.61218085  0.49561492     0.36010
H839        H  0.26524015  0.62697646  0.07428500     0.16380
O840        O  0.29931389  0.62258680  0.03497383    -0.60540
H841        H  0.25150505  0.60288808  0.44373317     0.16390
O842        O  0.21734404  0.60957038  0.48137533    -0.60640
H843        H  0.21298847  0.59454066  0.48897647     0.43390
H844        H  0.30119190  0.63856815  0.03588887     0.43340
C845        C  0.26583446  0.63521031  0.26999919    -0.05720
C846        C  0.26788597  0.63771431  0.23048636    -0.33150
C847        C  0.24985883  0.64116001  0.20818947     0.36100
C848        C  0.23013984  0.64348648  0.22618953    -0.06080
C849        C  0.22771843  0.63546117  0.26352725    -0.33050
C850        C  0.24567392  0.62888922  0.28398851     0.36010
H851        H  0.28330740  0.64067979  0.21792065     0.16380
O852        O  0.25205721  0.64479095  0.16975130    -0.60540
H853        H  0.21246665  0.63559193  0.27740327     0.16390
O854        O  0.24349341  0.62086683  0.32053543    -0.60640
H855        H  0.23918709  0.60542718  0.31788178     0.43390
H856        H  0.24720004  0.63110676  0.15798939     0.43340
C857        C  0.18388045  0.74306858  0.48440894    -0.05720
C858        C  0.16523914  0.73312518  0.49963498    -0.33150
C859        C  0.16563376  0.71230881  0.01918300     0.36100
C860        C  0.18465142  0.70042830  0.02239767    -0.06080
C861        C  0.20229865  0.70952943  0.00385529    -0.33050
C862        C  0.20258120  0.73057765  0.48753770     0.36010
H863        H  0.15054968  0.74178765  0.49781114     0.16380
O864        O  0.14754935  0.70423221  0.03601446    -0.60540
H865        H  0.21669346  0.70039312  0.00316211     0.16390
O866        O  0.22184348  0.73929999  0.47655096    -0.60640
H867        H  0.22893455  0.72825892  0.46135602     0.43390
H868        H  0.14046972  0.69552648  0.01614878     0.43340
C869        C  0.16345255  0.72239690  0.21266019    -0.05720
C870        C  0.16576292  0.74479771  0.20483609    -0.33150
C871        C  0.15751824  0.75990203  0.22962908     0.36100
C872        C  0.14692116  0.75252747  0.26284486    -0.06080
C873        C  0.14164639  0.73030208  0.26703858    -0.33050
C874        C  0.14986918  0.71519180  0.24213729     0.36010
H875        H  0.17560941  0.75060602  0.18135789     0.16380
O876        O  0.16236007  0.78154578  0.22385526    -0.60540
H877        H  0.13334765  0.72438390  0.29230528     0.16390
O878        O  0.14646088  0.69343368  0.24945379    -0.60640
H879        H  0.15774395  0.68910485  0.26758479     0.43390
H880        H  0.17743023  0.78323496  0.23111262     0.43340
C881        C  0.21381776  0.71688441  0.37007691    -0.05720
C882        C  0.20077447  0.69859220  0.36517090    -0.33150
C883        C  0.20767227  0.67830972  0.37789250     0.36100
C884        C  0.22704750  0.67682936  0.39723814    -0.06080
C885        C  0.23880278  0.69558583  0.40523943    -0.33050
C886        C  0.23333260  0.71511762  0.38859470     0.36010
H887        H  0.18524743  0.70014532  0.35249285     0.16380
O888        O  0.19615390  0.65996533  0.36957699    -0.60540
H889        H  0.25385140  0.69466792  0.41987704     0.16390
O890        O  0.24625145  0.73300520  0.39354616    -0.60640
H891        H  0.25232583  0.73647785  0.36805074     0.43390
H892        H  0.18804861  0.65630866  0.39309045     0.43340
C893        C  0.30140117  0.73682885  0.51773813    -0.05720
C894        C  0.29414958  0.71625166  0.03114104    -0.33150
C895        C  0.29602517  0.69744166  0.50933320     0.36100
C896        C  0.30606049  0.69840885  0.47346627    -0.06080
C897        C  0.31462411  0.71873044  0.46097714    -0.33050
C898        C  0.31204866  0.73780745  0.48239190     0.36010
H899        H  0.28579452  0.71494286  0.05803129     0.16380
O900        O  0.28790717  0.67810639  0.52349457    -0.60540
H901        H  0.32233914  0.72006769  0.43348429     0.16390
O902        O  0.31862649  0.75747690  0.46714941    -0.60640
H903        H  0.33285715  0.76009833  0.47810040     0.43390
H904        H  0.27265587  0.67826636  0.01707813     0.43340
C905        C  0.28935023  0.76222889  0.21768720    -0.05720
C906        C  0.30779227  0.74978685  0.22162314    -0.33150
C907        C  0.30919354  0.73287635  0.24964156     0.36100
C908        C  0.29213144  0.72846920  0.27466430    -0.06080
C909        C  0.27423324  0.74164658  0.27109674    -0.33050
C910        C  0.27281368  0.75828966  0.24368137     0.36010
H911        H  0.32098746  0.75293778  0.20258234     0.16380
O912        O  0.32722642  0.72098346  0.25229098    -0.60540
H913        H  0.26069405  0.73911025  0.28956865     0.16390
O914        O  0.25503367  0.77073999  0.24248595    -0.60640
H915        H  0.25168348  0.77433507  0.26915482     0.43390
H916        H  0.32523932  0.70914511  0.23391577     0.43340
C917        C  0.22687754  0.75660787  0.11606314    -0.05720
C918        C  0.22820783  0.74467610  0.08258371    -0.33150
C919        C  0.23919441  0.72530688  0.08243140     0.36100
C920        C  0.24725246  0.71662983  0.11674748    -0.06080
C921        C  0.24609283  0.72874879  0.14998943    -0.33050
C922        C  0.23443774  0.74748690  0.15044828     0.36010
H923        H  0.22227446  0.75125573  0.05580663     0.16380
O924        O  0.24132645  0.71445379  0.04909316    -0.60540
H925        H  0.25212471  0.72238740  0.17688749     0.16390
O926        O  0.23118539  0.75718171  0.18458998    -0.60640
H927        H  0.21615171  0.75422011  0.19089421     0.43390
H928        H  0.24979665  0.72412016  0.03187866     0.43340
C929        C  0.24053714  0.82659132  0.22987094    -0.05720
C930        C  0.21941923  0.83150057  0.22035597    -0.33150
C931        C  0.20262356  0.82671974  0.24562658     0.36100
C932        C  0.20647719  0.81625186  0.28094271    -0.06080
C933        C  0.22760613  0.81276301  0.29171989    -0.33050
C934        C  0.24453371  0.81844178  0.26709891     0.36010
H935        H  0.21568913  0.83805270  0.19226680     0.16380
O936        O  0.18233390  0.83056765  0.23402044    -0.60540
H937        H  0.23102693  0.80497862  0.31898369     0.16390
O938        O  0.26474452  0.81417153  0.27868023    -0.60640
H939        H  0.26976200  0.82757891  0.29116283     0.43390
H940        H  0.17932469  0.84539060  0.24267897     0.43340
C941        C  0.26553289  0.83390601  0.00696230    -0.05720
C942        C  0.24581029  0.84235514  0.01694131    -0.33150
C943        C  0.22887163  0.84030138  0.99141955     0.36100
C944        C  0.23292913  0.83261555  0.45486894    -0.06080
C945        C  0.25399795  0.83350727  0.44168961    -0.33050
C946        C  0.27054568  0.83352682  0.46815700     0.36010
H947        H  0.24214635  0.84440382  0.04678514     0.16380
O948        O  0.20862663  0.84131912  0.00486234    -0.60540
H949        H  0.25752858  0.82937042  0.41256694     0.16390
O950        O  0.29044882  0.82809866  0.45683924    -0.60640
H951        H  0.29006345  0.81208702  0.45430385     0.43390
H952        H  0.20331074  0.85540985  0.99497892     0.43340
C953        C  0.10593589  0.59467629  0.20842966    -0.05720
C954        C  0.12141097  0.60675253  0.22726298    -0.33150
C955        C  0.13515153  0.62084184  0.20720956     0.36100
C956        C  0.13392764  0.62320029  0.16668782    -0.06080
C957        C  0.11791891  0.61174726  0.14783654    -0.33050
C958        C  0.10396959  0.59771353  0.16816930     0.36010
H959        H  0.12336148  0.60489367  0.25784306     0.16380
O960        O  0.15053257  0.63127776  0.22783211    -0.60540
H961        H  0.11640362  0.61332364  0.11714566     0.16390
O962        O  0.08865258  0.58688353  0.14805222    -0.60640
H963        H  0.09564168  0.57389742  0.13817824     0.43390
H964        H  0.14380263  0.64453117  0.23721822     0.43340
C965        C  0.06106341  0.45545137  0.41604951    -0.05720
C966        C  0.08238647  0.45729665  0.40485919    -0.33150
C967        C  0.09063262  0.47649601  0.38752487     0.36100
C968        C  0.07780683  0.49473737  0.38135385    -0.06080
C969        C  0.05704423  0.49361777  0.39552844    -0.33050
C970        C  0.04862307  0.47427980  0.41239544     0.36010
H971        H  0.09254735  0.44340545  0.40772497     0.16380
O972        O  0.11075934  0.47654461  0.37323645    -0.60540
H973        H  0.04660610  0.50710252  0.39021074     0.16390
O974        O  0.02802521  0.47391098  0.42433093    -0.60640
H975        H  0.01953262  0.47097894  0.40118500     0.43390
H976        H  0.11970567  0.48297694  0.39340195     0.43340
C977        C  0.08441984  0.50264130  0.14050320    -0.05720
C978        C  0.08970778  0.48081541  0.14752772    -0.33150
C979        C  0.08441449  0.46504396  0.12082884     0.36100
C980        C  0.07478629  0.47155285  0.08636770    -0.06080
C981        C  0.07513773  0.49378813  0.07594085    -0.33050
C982        C  0.08027853  0.50942077  0.10280879     0.36010
H983        H  0.09354803  0.47542232  0.17630940     0.16380
O984        O  0.08516307  0.44352053  0.13153044    -0.60540
H985        H  0.06861373  0.49913602  0.04879300     0.16390
O986        O  0.07602660  0.53077733  0.09455980    -0.60640
H987        H  0.09003755  0.53800264  0.09126821     0.43390
H988        H  0.09871701  0.43841842  0.12127233     0.43340
C989        C  0.98253663  0.57853518  0.09643163    -0.05720
C990        C  0.00429620  0.58352600  0.09587171    -0.33150
C991        C  0.01792592  0.57441779  0.12313394     0.36100
C992        C  0.00988693  0.55968534  0.15098834    -0.06080
C993        C  0.98794332  0.55627756  0.15366383    -0.33050
C994        C  0.97426861  0.56564636  0.12682683     0.36010
H995        H  0.01096536  0.59326978  0.07258508     0.16380
O996        O  0.03923734  0.57823077  0.11978934    -0.60540
H997        H  0.98143404  0.54536278  0.17551526     0.16390
O998        O  0.95312642  0.56045925  0.12863711    -0.60640
H999        H  0.95171134  0.54577636  0.11782030     0.43390
H1000       H  0.04207878  0.59156456  0.13435144     0.43340
C1001       C  0.98635294  0.57074043  0.36513618    -0.05720
C1002       C  0.00507091  0.57251325  0.38654783    -0.33150
C1003       C  0.02462227  0.56699730  0.37085106     0.36100
C1004       C  0.02564999  0.55964920  0.33323542    -0.06080
C1005       C  0.00740561  0.56043647  0.31051292    -0.33050
C1006       C  0.98796725  0.56631109  0.32608692     0.36010
H1007       H  0.00422370  0.57550618  0.41680451     0.16380
O1008       O  0.04218934  0.56664384  0.39371040    -0.60540
H1009       H  0.00797250  0.55547387  0.28115835     0.16390
O1010       O  0.97008571  0.56513956  0.30414604    -0.60640
H1011       H  0.96842675  0.57997427  0.29308316     0.43390
H1012       H  0.04895376  0.58118587  0.39004359     0.43340
C1013       C  0.98590490  0.50362933  0.48385316    -0.05720
C1014       C  0.98181106  0.49107225  0.45163229    -0.33150
C1015       C  0.97371490  0.47015204  0.45572324     0.36100
C1016       C  0.97335267  0.46046649  0.49227100    -0.06080
C1017       C  0.97360039  0.47369512  0.02415014    -0.33050
C1018       C  0.98100656  0.49493147  0.02044839     0.36010
H1019       H  0.98494837  0.49733264  0.42304405     0.16380
O1020       O  0.97055001  0.45802157  0.42386345    -0.60540
H1021       H  0.97197153  0.46665983  0.05264893     0.16390
O1022       O  0.98386407  0.50669435  0.05282673    -0.60640
H1023       H  0.99860591  0.50398695  0.06093487     0.43390
H1024       H  0.95525124  0.45904508  0.41827132     0.43340
C1025       C  0.97465511  0.49377851  0.23007857    -0.05720
C1026       C  0.98568792  0.47722695  0.21254412    -0.33150
C1027       C  0.00400498  0.46920926  0.22885146     0.36100
C1028       C  0.01227161  0.47863763  0.26197613    -0.06080
C1029       C  0.00099186  0.49482721  0.28007101    -0.33050
C1030       C  0.98257659  0.50271556  0.26386154     0.36010
H1031       H  0.97955116  0.46963972  0.18719602     0.16380
O1032       O  0.01497967  0.45375410  0.20996541    -0.60540
H1033       H  0.00729902  0.50269100  0.30503959     0.16390
O1034       O  0.97190216  0.51861122  0.28202794    -0.60640
H1035       H  0.97234936  0.53131191  0.26411567     0.43390
H1036       H  0.01617774  0.44127525  0.22820985     0.43340
C1037       C  0.96155076  0.41722448  0.14381065    -0.05720
C1038       C  0.96188341  0.40687278  0.10855411    -0.33150
C1039       C  0.98122342  0.40072292  0.09214757     0.36100
C1040       C  0.00046394  0.40552930  0.11076484    -0.06080
C1041       C  0.99959382  0.41243167  0.14853082    -0.33050
C1042       C  0.98038309  0.41790878  0.16517236     0.36010
H1043       H  0.94733679  0.40476235  0.09268556     0.16380
O1044       O  0.98152049  0.39149484  0.05683781    -0.60540
H1045       H  0.01412548  0.41581190  0.16379599     0.16390
O1046       O  0.98039925  0.42449031  0.20204284    -0.60640
H1047       H  0.97812683  0.41103760  0.21771999     0.43390
H1048       H  0.97132875  0.39946035  0.04048285     0.43340
C1049       C  0.99978354  0.39192749  0.37963439    -0.05720
C1050       C  0.97781611  0.38853390  0.38457968    -0.33150
C1051       C  0.96323775  0.39714065  0.35829789     0.36100
C1052       C  0.97055456  0.40910343  0.32627139    -0.06080
C1053       C  0.99240644  0.41001768  0.31888966    -0.33050
C1054       C  0.00696736  0.40146137  0.34504288     0.36010
H1055       H  0.97184882  0.38101461  0.41073860     0.16380
O1056       O  0.94206169  0.39560610  0.36616388    -0.60540
H1057       H  0.99833092  0.41897162  0.29403221     0.16390
O1058       O  0.02809094  0.40510880  0.33862770    -0.60640
H1059       H  0.03287728  0.39209641  0.32526113     0.43390
H1060       H  0.93903618  0.40838922  0.38176310     0.43340
C1061       C  0.90473233  0.48570053  0.09710693    -0.05720
C1062       C  0.89504371  0.50585014  0.10201515    -0.33150
C1063       C  0.90184996  0.52457613  0.08164391     0.36100
C1064       C  0.91881772  0.52350456  0.05597998    -0.06080
C1065       C  0.92685470  0.50295229  0.04797213    -0.33050
C1066       C  0.91984985  0.48411666  0.06811095     0.36010
H1067       H  0.88348236  0.50750431  0.12443104     0.16380
O1068       O  0.89330530  0.54416348  0.09009031    -0.60540
H1069       H  0.93912849  0.50165440  0.02691877     0.16390
O1070       O  0.92961745  0.46480497  0.06240396    -0.60640
H1071       H  0.92206414  0.45828049  0.04059780     0.43390
H1072       H  0.88060334  0.54533735  0.07367089     0.43340
C1073       C  0.89757423  0.47698155  0.32949729    -0.05720
C1074       C  0.89644094  0.49861484  0.31569228    -0.33150
C1075       C  0.90044947  0.51595579  0.34009921     0.36100
C1076       C  0.90450229  0.51151220  0.37883523    -0.06080
C1077       C  0.89986355  0.49048525  0.39361835    -0.33050
C1078       C  0.89672362  0.47312006  0.36905494     0.36010
H1079       H  0.89687904  0.50191402  0.28521161     0.16380
O1080       O  0.90442805  0.53627805  0.32467369    -0.60540
H1081       H  0.90236514  0.48685480  0.42365959     0.16390
O1082       O  0.89684396  0.45223017  0.38360340    -0.60640
H1083       H  0.91191578  0.44892990  0.38824229     0.43390
H1084       H  0.89130898  0.54441045  0.32882449     0.43340
C1085       C  0.86124288  0.64440517  0.40531844    -0.05720
C1086       C  0.87026889  0.62930993  0.38098368    -0.33150
C1087       C  0.88477254  0.61423357  0.39460521     0.36100
C1088       C  0.89063430  0.61399859  0.43334127    -0.06080
C1089       C  0.88235049  0.62967463  0.45732600    -0.33050
C1090       C  0.86776979  0.64472283  0.44373665     0.36010
H1091       H  0.86550672  0.62850859  0.35138251     0.16380
O1092       O  0.89223379  0.59915450  0.37011944    -0.60540
H1093       H  0.88703056  0.63023855  0.48700014     0.16390
O1094       O  0.85999751  0.65954453  0.46839181    -0.60640
H1095       H  0.84875079  0.65163101  0.48299177     0.43390
H1096       H  0.90417492  0.60652555  0.35653960     0.43340
C1097       C  0.76441120  0.65359178  0.47442546    -0.05720
C1098       C  0.74705004  0.64964444  0.45030099    -0.33150
C1099       C  0.72665803  0.65278172  0.46418767     0.36100
C1100       C  0.72402790  0.65666623  0.00303485    -0.06080
C1101       C  0.74076779  0.65192210  0.02810872    -0.33050
C1102       C  0.76135266  0.65134174  0.51385992     0.36010
H1103       H  0.74928334  0.65015196  0.41965036     0.16380
O1104       O  0.71026133  0.65582589  0.43913870    -0.60540
H1105       H  0.73872101  0.65389545  0.05848894     0.16390
O1106       O  0.77806327  0.65383742  0.53831661    -0.60640
H1107       H  0.78362117  0.63902897  0.04232801     0.43390
H1108       H  0.71151523  0.67120827  0.43025315     0.43340
C1109       C  0.72335226  0.64449657  0.20930601    -0.05720
C1110       C  0.71647400  0.64578698  0.24693930    -0.33150
C1111       C  0.73100692  0.64545073  0.27698160     0.36100
C1112       C  0.75304838  0.64459802  0.26947072    -0.06080
C1113       C  0.75953289  0.64010369  0.23252215    -0.33050
C1114       C  0.74488636  0.63971152  0.20259834     0.36010
H1115       H  0.70004856  0.64882690  0.25301863     0.16380
O1116       O  0.72347510  0.64789462  0.31321165    -0.60540
H1117       H  0.77613508  0.63834491  0.22620886     0.16390
O1118       O  0.75202705  0.63584384  0.16650826    -0.60640
H1119       H  0.76017975  0.64908841  0.15850349     0.43390
H1120       H  0.72206961  0.63292927  0.32409387     0.43340
C1121       C  0.81912027  0.75767015  0.23608892    -0.05720
C1122       C  0.82654568  0.73756170  0.22434653    -0.33150
C1123       C  0.82288159  0.71852419  0.24658785     0.36100
C1124       C  0.81102528  0.71930860  0.28053749    -0.06080
C1125       C  0.80512921  0.73961696  0.29369851    -0.33050
C1126       C  0.80940214  0.75866726  0.27214442     0.36010
H1127       H  0.83332159  0.73623887  0.19619046     0.16380
O1128       O  0.82904137  0.69897390  0.23291925    -0.60540
H1129       H  0.79658490  0.74067385  0.32024725     0.16390
O1130       O  0.80153691  0.77791590  0.28420510    -0.60640
H1131       H  0.81311909  0.78463484  0.29914424     0.43390
H1132       H  0.84386955  0.69739741  0.24147611     0.43340
C1133       C  0.82176984  0.74008042  0.47880961    -0.05720
C1134       C  0.82001203  0.73777363  0.01862544    -0.33150
C1135       C  0.81960883  0.75606849  0.04185791     0.36100
C1136       C  0.82140061  0.77714066  0.02548970    -0.06080
C1137       C  0.82535173  0.77939285  0.48624502    -0.33050
C1138       C  0.82527543  0.76112675  0.46293058     0.36010
H1139       H  0.81676032  0.72186399  0.03135119     0.16380
O1140       O  0.81600661  0.75318967  0.08015997    -0.60540
H1141       H  0.82696154  0.79546309  0.47318954     0.16390
O1142       O  0.82661029  0.76414732  0.42412470    -0.60640
H1143       H  0.81211306  0.76770432  0.41560036     0.43390
H1144       H  0.83020022  0.75338222  0.09210618     0.43340
C1145       C  0.74919072  0.77264731  0.10775345    -0.05720
C1146       C  0.75728901  0.76244964  0.07564014    -0.33150
C1147       C  0.75934707  0.74006115  0.07535233     0.36100
C1148       C  0.75267854  0.72731651  0.10712201    -0.06080
C1149       C  0.74493983  0.73752800  0.13949137    -0.33050
C1150       C  0.74286115  0.75991237  0.13975928     0.36010
H1151       H  0.76264985  0.77185376  0.05089682     0.16380
O1152       O  0.76699677  0.73080010  0.04311521    -0.60540
H1153       H  0.73949061  0.72811961  0.16416956     0.16390
O1154       O  0.73504907  0.76914695  0.17186439    -0.60640
H1155       H  0.72076829  0.77408286  0.16466795     0.43390
H1156       H  0.78030784  0.72380419  0.05106388     0.43340
C1157       C  0.75652288  0.77467713  0.35305619    -0.05720
C1158       C  0.75507547  0.76078940  0.32208187    -0.33150
C1159       C  0.74813412  0.73942950  0.32715690     0.36100
C1160       C  0.74376619  0.73109740  0.36419748    -0.06080
C1161       C  0.74553867  0.74488140  0.39529599    -0.33050
C1162       C  0.75232232  0.76631827  0.39014896     0.36010
H1163       H  0.75840392  0.76669677  0.29334984     0.16380
O1164       O  0.74613114  0.72677798  0.29566403    -0.60540
H1165       H  0.74222178  0.73891792  0.42401162     0.16390
O1166       O  0.75411999  0.77908730  0.42152164    -0.60640
H1167       H  0.76900831  0.77777863  0.42990892     0.43390
H1168       H  0.73123264  0.72824898  0.28742290     0.43340
C1169       C  0.68009822  0.76145543  0.23693832    -0.05720
C1170       C  0.67880714  0.74055111  0.25392449    -0.33150
C1171       C  0.67898900  0.72196983  0.23169764     0.36100
C1172       C  0.68067682  0.72408923  0.19186640    -0.06080
C1173       C  0.68018099  0.74487798  0.17458335    -0.33050
C1174       C  0.67968569  0.76351045  0.19690080     0.36010
H1175       H  0.67979615  0.73861477  0.28466468     0.16380
O1176       O  0.67942399  0.70185938  0.24932210    -0.60540
H1177       H  0.68117773  0.74669603  0.14384743     0.16390
O1178       O  0.68126038  0.78363061  0.17944394    -0.60640
H1179       H  0.66655438  0.78877670  0.17755923     0.43390
H1180       H  0.66445487  0.69693375  0.25079790     0.43340
C1181       C  0.68687901  0.78405962  0.43370821    -0.05720
C1182       C  0.67793853  0.78619831  0.47005820    -0.33150
C1183       C  0.67501151  0.76799794  0.49477810     0.36100
C1184       C  0.68052085  0.74710474  0.48307526    -0.06080
C1185       C  0.68773826  0.74482942  0.44557262    -0.33050
C1186       C  0.69092317  0.76299128  0.42108654     0.36010
H1187       H  0.67453042  0.80220649  0.48028528     0.16380
O1188       O  0.66898090  0.77113977  0.03171611    -0.60540
H1189       H  0.69279757  0.72909260  0.43633140     0.16390
O1190       O  0.69886714  0.75995975  0.38541344    -0.60640
H1191       H  0.68636758  0.75708729  0.36912438     0.43390
H1192       H  0.65352887  0.76829652  0.03202224     0.43340
C1193       C  0.77474156  0.85464034  0.00446736    -0.05720
C1194       C  0.75333145  0.85864676  0.01338083    -0.33150
C1195       C  0.73760032  0.85918866  0.48524219     0.36100
C1196       C  0.74305159  0.85629998  0.44706355    -0.06080
C1197       C  0.76480663  0.85512656  0.43778589    -0.33050
C1198       C  0.78047357  0.85408624  0.46598474     0.36010
H1199       H  0.74835807  0.85979340  0.04276818     0.16380
O1200       O  0.71690367  0.86094279  0.49585555    -0.60540
H1201       H  0.76977706  0.85342143  0.40851833     0.16390
O1202       O  0.80094797  0.85056893  0.45558942    -0.60640
H1203       H  0.80750453  0.86525156  0.45261068     0.43390
H1204       H  0.71407738  0.87672268  0.99442842     0.43340
C1205       C  0.73527559  0.84993008  0.23969097    -0.05720
C1206       C  0.75262211  0.85400885  0.26380028    -0.33150
C1207       C  0.77307384  0.85150722  0.24974995     0.36100
C1208       C  0.77568992  0.84756457  0.21091018    -0.06080
C1209       C  0.75886203  0.85221834  0.18593061    -0.33050
C1210       C  0.73827046  0.85234669  0.20026100     0.36010
H1211       H  0.75043549  0.85320296  0.29445615     0.16380
O1212       O  0.78932821  0.84796701  0.27483855    -0.60540
H1213       H  0.76086770  0.85015451  0.15555624     0.16390
O1214       O  0.72159275  0.84955409  0.17582630    -0.60640
H1215       H  0.71541584  0.86415365  0.17263453     0.43390
H1216       H  0.79726363  0.86197414  0.27545074     0.43340
C1217       C  0.59725807  0.62372366  0.02870991    -0.05720
C1218       C  0.60656375  0.63980997  0.00474464    -0.33150
C1219       C  0.61956724  0.65612135  0.01954384     0.36100
C1220       C  0.62339618  0.65663930  0.05911198    -0.06080
C1221       C  0.61206760  0.64207198  0.08334342    -0.33050
C1222       C  0.59909777  0.62572228  0.06848952     0.36010
H1223       H  0.60467563  0.63912987  0.47411070     0.16380
O1224       O  0.62908081  0.67090013  0.99488216    -0.60540
H1225       H  0.61447587  0.64218812  0.11390716     0.16390
O1226       O  0.59002969  0.61063286  0.09308044    -0.60640
H1227       H  0.57618378  0.61670076  0.09985724     0.43390
H1228       H  0.64083175  0.66305241  0.98307574     0.43340
C1229       C  0.58645212  0.51932062  0.37011849    -0.05720
C1230       C  0.56528058  0.51310393  0.36413777    -0.33150
C1231       C  0.55954324  0.49423812  0.34444660     0.36100
C1232       C  0.57515437  0.48160462  0.32731198    -0.06080
C1233       C  0.59648664  0.48831863  0.33200435    -0.33050
C1234       C  0.60213773  0.50649251  0.35405669     0.36010
H1235       H  0.55286984  0.52194062  0.37747589     0.16380
O1236       O  0.53887134  0.48706542  0.34558388    -0.60540
H1237       H  0.60896329  0.47906566  0.31952246     0.16390
O1238       O  0.62304659  0.51126288  0.36042217    -0.60640
H1239       H  0.62694328  0.50232223  0.38316120     0.43390
H1240       H  0.52996143  0.49998008  0.34128307     0.43340
C1241       C  0.56868469  0.52615548  0.11494599    -0.05720
C1242       C  0.57946774  0.50673231  0.10975836    -0.33150
C1243       C  0.57332049  0.48747794  0.12959063     0.36100
C1244       C  0.55636931  0.48752772  0.15597193    -0.06080
C1245       C  0.54880977  0.50777574  0.16636309    -0.33050
C1246       C  0.55523283  0.52703903  0.14691052     0.36010
H1247       H  0.59007777  0.50553210  0.08574381     0.16380
O1248       O  0.58241568  0.46843229  0.11955302    -0.60540
H1249       H  0.53674281  0.50848808  0.18763522     0.16390
O1250       O  0.54536932  0.54606204  0.15479577    -0.60640
H1251       H  0.53142931  0.54516631  0.14194164     0.43390
H1252       H  0.59440896  0.46654717  0.13745265     0.43340
C1253       C  0.39939018  0.62354236  0.28239021    -0.05720
C1254       C  0.40188595  0.62819173  0.32120892    -0.33150
C1255       C  0.38673563  0.63985682  0.34082258     0.36100
C1256       C  0.36850700  0.64729170  0.32169213    -0.06080
C1257       C  0.36689952  0.64407820  0.28210150    -0.33050
C1258       C  0.38210885  0.63239474  0.26252243     0.36010
H1259       H  0.41533719  0.62207224  0.33697452     0.16380
O1260       O  0.38973361  0.64335955  0.37892727    -0.60540
H1261       H  0.35314877  0.64951500  0.26644093     0.16390
O1262       O  0.37892376  0.62823120  0.22472517    -0.60640
H1263       H  0.38515617  0.64096316  0.21070626     0.43390
H1264       H  0.38586984  0.62939643  0.39202962     0.43340
C1265       C  0.49286542  0.59454735  0.36262530    -0.05720
C1266       C  0.51299407  0.60007059  0.34804455    -0.33150
C1267       C  0.53145492  0.59319415  0.36679776     0.36100
C1268       C  0.53005948  0.58055442  0.40074063    -0.06080
C1269       C  0.51016136  0.57772709  0.41797974    -0.33050
C1270       C  0.49174469  0.58493102  0.39946974     0.36010
H1271       H  0.51439657  0.60710765  0.31952388     0.16380
O1272       O  0.55066433  0.59714239  0.34982648    -0.60540
H1273       H  0.50874283  0.56952391  0.44542637     0.16390
O1274       O  0.47246133  0.58082989  0.41616239    -0.60640
H1275       H  0.46653650  0.56784408  0.40353700     0.43390
H1276       H  0.55540885  0.61150370  0.35910657     0.43340
C1277       C  0.46545026  0.59534610  0.11494229    -0.05720
C1278       C  0.48603117  0.60448052  0.11605557    -0.33150
C1279       C  0.50218943  0.59702239  0.09254176     0.36100
C1280       C  0.49795341  0.58012818  0.06707208    -0.06080
C1281       C  0.47673780  0.57329444  0.06226332    -0.33050
C1282       C  0.46058745  0.58089691  0.08559537     0.36010
H1283       H  0.49025463  0.61545698  0.13861622     0.16380
O1284       O  0.52243804  0.60451830  0.09816007    -0.60540
H1285       H  0.47281668  0.56076979  0.04215387     0.16390
O1286       O  0.44089057  0.57140637  0.08341860    -0.60640
H1287       H  0.43254180  0.58151677  0.06726621     0.43390
H1288       H  0.52410460  0.61724669  0.08049982     0.43340
C1289       C  0.50183326  0.52206093  0.21803567    -0.05720
C1290       C  0.48750651  0.50866105  0.19899696    -0.33150
C1291       C  0.48409243  0.48757125  0.21170995     0.36100
C1292       C  0.49603652  0.47938731  0.24261331    -0.06080
C1293       C  0.51056926  0.49267435  0.26114101    -0.33050
C1294       C  0.51372543  0.51387590  0.24903364     0.36010
H1295       H  0.47848092  0.51469797  0.17492531     0.16380
O1296       O  0.46939959  0.47497058  0.19327886    -0.60540
H1297       H  0.52023062  0.48633185  0.28384325     0.16390
O1298       O  0.52851942  0.52635684  0.26751347    -0.60640
H1299       H  0.54208130  0.52360179  0.25459864     0.43390
H1300       H  0.45686153  0.47444244  0.21017886     0.43340
C1301       C  0.50094833  0.42189524  0.39430684    -0.05720
C1302       C  0.52239969  0.42729478  0.40067097    -0.33150
C1303       C  0.53835413  0.42017330  0.37629765     0.36100
C1304       C  0.53300149  0.40744808  0.34482021    -0.06080
C1305       C  0.51205965  0.39937571  0.34217918    -0.33050
C1306       C  0.49611936  0.40649889  0.36642986     0.36010
H1307       H  0.52671767  0.43844848  0.42290377     0.16380
O1308       O  0.55872572  0.42759765  0.38110905    -0.60540
H1309       H  0.50749880  0.38956125  0.31820403     0.16390
O1310       O  0.47560516  0.40033249  0.35940511    -0.60640
H1311       H  0.47318070  0.38700558  0.37533923     0.43390
H1312       H  0.55836637  0.44352515  0.37642639     0.43340
C1313       C  0.46976911  0.42271325  0.06171843    -0.05720
C1314       C  0.48944045  0.42476010  0.04329178    -0.33150
C1315       C  0.50809107  0.41792096  0.06147219     0.36100
C1316       C  0.50753239  0.40957068  0.09912567    -0.06080
C1317       C  0.48760088  0.40480517  0.11534605    -0.33050
C1318       C  0.46886948  0.41139507  0.09706395     0.36010
H1319       H  0.49062314  0.43221711  0.01521089     0.16380
O1320       O  0.52717485  0.42209623  0.04423172    -0.60540
H1321       H  0.48665071  0.39869450  0.14453669     0.16390
O1322       O  0.44990070  0.40803657  0.11522295    -0.60640
H1323       H  0.44830754  0.42071947  0.13176754     0.43390
H1324       H  0.52961460  0.40938203  0.02814778     0.43340
C1325       C  0.52090083  0.49531654  0.47056867    -0.05720
C1326       C  0.51033704  0.51183508  0.45046911    -0.33150
C1327       C  0.49085485  0.51835092  0.46270360     0.36100
C1328       C  0.48064482  0.50656840  0.49212430    -0.06080
C1329       C  0.49106989  0.48982053  0.01190035    -0.33050
C1330       C  0.51068855  0.48346437  0.99994139     0.36010
H1331       H  0.51808300  0.52136992  0.42801013     0.16380
O1332       O  0.48073441  0.53455744  0.44289405    -0.60540
H1333       H  0.48322352  0.48019974  0.03413371     0.16390
O1334       O  0.52088135  0.46734671  0.01988752    -0.60640
H1335       H  0.52393858  0.45622022  0.00081510     0.43390
H1336       H  0.47783557  0.54572915  0.46197781     0.43340
C1337       C  0.40962590  0.48527450  0.09190987    -0.05720
C1338       C  0.39829876  0.50477308  0.08919936    -0.33150
C1339       C  0.40356471  0.52288133  0.11148834     0.36100
C1340       C  0.42097584  0.52226297  0.13666387    -0.06080
C1341       C  0.43170362  0.50249471  0.14057893    -0.33050
C1342       C  0.42622258  0.48420961  0.11873659     0.36010
H1343       H  0.38592307  0.50640313  0.06802422     0.16380
O1344       O  0.39248641  0.54162869  0.10625772    -0.60540
H1345       H  0.44468016  0.50133273  0.16034735     0.16390
O1346       O  0.43802542  0.46582090  0.12222668    -0.60640
H1347       H  0.45186784  0.46967294  0.11049269     0.43390
H1348       H  0.37980591  0.53970351  0.12259734     0.43340
C1349       C  0.44338224  0.51756134  0.30730342    -0.05720
C1350       C  0.45028995  0.49718943  0.29612017    -0.33150
C1351       C  0.44416374  0.47805213  0.31613120     0.36100
C1352       C  0.43166172  0.47915596  0.34925240    -0.06080
C1353       C  0.42160336  0.49882323  0.35595971    -0.33050
C1354       C  0.42745889  0.51797474  0.33559018     0.36010
H1355       H  0.46172332  0.49627135  0.27366590     0.16380
O1356       O  0.45397385  0.45906450  0.30799184    -0.60540
H1357       H  0.41189229  0.50018869  0.38115015     0.16390
O1358       O  0.41933971  0.53724378  0.34693135    -0.60640
H1359       H  0.40664993  0.53944265  0.33081468     0.43390
H1360       H  0.44574766  0.45287617  0.28665769     0.43340
C1361       C  0.84763079  0.34919952  0.28767253    -0.05720
C1362       C  0.84984989  0.35075890  0.24776701    -0.33150
C1363       C  0.86345422  0.36627371  0.23062596     0.36100
C1364       C  0.87526902  0.38059267  0.25344104    -0.06080
C1365       C  0.87331950  0.37864962  0.29334717    -0.33050
C1366       C  0.85980235  0.36322058  0.31042158     0.36010
H1367       H  0.84095403  0.33996419  0.22956754     0.16380
O1368       O  0.86520478  0.36703769  0.19166896    -0.60540
H1369       H  0.88208761  0.38939096  0.31183451     0.16390
O1370       O  0.85827826  0.36250030  0.34942611    -0.60640
H1371       H  0.87009631  0.35331837  0.35830650     0.43390
H1372       H  0.85312262  0.37576471  0.18253667     0.43340
C1373       C  0.62346313  0.34741422  0.14722156    -0.05720
C1374       C  0.61962528  0.36684084  0.12689228    -0.33150
C1375       C  0.60775617  0.38324210  0.14291843     0.36100
C1376       C  0.59942896  0.38047010  0.18013598    -0.06080
C1377       C  0.60309900  0.36097541  0.20032125    -0.33050
C1378       C  0.61491871  0.34455711  0.18427902     0.36010
H1379       H  0.62620958  0.36958079  0.09867569     0.16380
O1380       O  0.60510174  0.40223987  0.12237972    -0.60540
H1381       H  0.59656614  0.35826394  0.22858328     0.16390
O1382       O  0.61744201  0.32551143  0.20474933    -0.60640
H1383       H  0.62901715  0.32852664  0.22305010     0.43390
H1384       H  0.59324063  0.39924530  0.10466771     0.43340
C1385       C  0.71956384  0.30982178  0.49502719    -0.05720
C1386       C  0.71577896  0.30013817  0.45977731    -0.33150
C1387       C  0.73222576  0.29762310  0.43321746     0.36100
C1388       C  0.75303681  0.30510314  0.44117246    -0.06080
C1389       C  0.75654522  0.31569916  0.47573121    -0.33050
C1390       C  0.74020839  0.31778400  0.00257329     0.36010
H1391       H  0.70024758  0.29345494  0.45357930     0.16380
O1392       O  0.72778524  0.28744230  0.39974942    -0.60540
H1393       H  0.77223991  0.32167001  0.48267994     0.16390
O1394       O  0.74478805  0.32698796  0.03687147    -0.60640
H1395       H  0.74142365  0.34256077  0.03328976     0.43390
H1396       H  0.72460785  0.29930030  0.38110718     0.43340
C1397       C  0.75133792  0.28935870  0.25525555    -0.05720
C1398       C  0.73216667  0.28168582  0.27103534    -0.33150
C1399       C  0.71311910  0.28389295  0.25095202     0.36100
C1400       C  0.71294437  0.29370372  0.21424566    -0.06080
C1401       C  0.73170872  0.30331767  0.20013086    -0.33050
C1402       C  0.75075165  0.30155429  0.22063766     0.36010
H1403       H  0.73212257  0.27260452  0.29788577     0.16380
O1404       O  0.69504007  0.27439242  0.26569776    -0.60540
H1405       H  0.73205839  0.31029384  0.17148090     0.16390
O1406       O  0.76904065  0.30944863  0.20421952    -0.60640
H1407       H  0.77049458  0.32459268  0.21291901     0.43390
H1408       H  0.69596762  0.25874315  0.26002180     0.43340
C1409       C  0.83911587  0.27022379  0.43703698    -0.05720
C1410       C  0.83579600  0.27409530  0.47565582    -0.33150
C1411       C  0.83467842  0.25665685  0.50201327     0.36100
C1412       C  0.83695767  0.23513764  0.48963491    -0.06080
C1413       C  0.84445355  0.23188276  0.45282641    -0.33050
C1414       C  0.84599467  0.24945267  0.42666745     0.36010
H1415       H  0.83055726  0.28987702  0.48432022     0.16380
O1416       O  0.82762873  0.26041708  0.53816638    -0.60540
H1417       H  0.84636388  0.21553490  0.44285336     0.16390
O1418       O  0.85030966  0.24538817  0.38927962    -0.60640
H1419       H  0.86519403  0.25020706  0.38554233     0.43390
H1420       H  0.84020546  0.25888412  0.55479900     0.43340
C1421       C  0.83561397  0.20684472  0.18869543    -0.05720
C1422       C  0.84235010  0.22587719  0.16879043    -0.33150
C1423       C  0.84239807  0.24611674  0.18651403     0.36100
C1424       C  0.83744976  0.24722125  0.22538052    -0.06080
C1425       C  0.83520199  0.22761054  0.24669179    -0.33050
C1426       C  0.83367738  0.20759748  0.22851099     0.36010
H1427       H  0.84480592  0.22564909  0.13835682     0.16380
O1428       O  0.84467306  0.26479814  0.16470821    -0.60540
H1429       H  0.83113850  0.22806381  0.27664455     0.16390
O1430       O  0.82688985  0.18955795  0.24899845    -0.60640
H1431       H  0.83991037  0.18162349  0.25565512     0.43390
H1432       H  0.83054299  0.26737958  0.15341785     0.43340
C1433       C  0.76968810  0.25473013  0.16121243    -0.05720
C1434       C  0.76313716  0.27295555  0.14038082    -0.33150
C1435       C  0.74463235  0.26988662  0.11925594     0.36100
C1436       C  0.73083228  0.25227613  0.12966159    -0.06080
C1437       C  0.73467942  0.24105440  0.16469945    -0.33050
C1438       C  0.75377390  0.24490248  0.18375746     0.36010
H1439       H  0.77477088  0.28476757  0.12997660     0.16380
O1440       O  0.74194281  0.28208094  0.08668653    -0.60540
H1441       H  0.72363288  0.22894984  0.17613987     0.16390
O1442       O  0.75900897  0.23218528  0.21484119    -0.60640
H1443       H  0.74983155  0.23701542  0.23572761     0.44670
H1444       H  0.74938339  0.27422490  0.06652060     0.43340
C1445       C  0.78176258  0.20700661  0.38185418    -0.05720
C1446       C  0.77218295  0.21157458  0.41655096    -0.33150
C1447       C  0.75088429  0.21708352  0.41414309     0.36100
C1448       C  0.73972531  0.21239740  0.37990022    -0.06080
C1449       C  0.74901663  0.19810118  0.35427868    -0.33050
C1450       C  0.77014416  0.19259333  0.35963616     0.36010
H1451       H  0.78160256  0.21759260  0.43996169     0.16380
O1452       O  0.74206534  0.22841347  0.44309511    -0.60540
H1453       H  0.74109531  0.19293089  0.32901391     0.16390
O1454       O  0.78022127  0.17946977  0.33462863    -0.60640
H1455       H  0.77844051  0.18617976  0.30885398     0.43390
H1456       H  0.74593750  0.24385457  0.43764822     0.43340
C1457       C  0.64126335  0.25906190  0.02356126    -0.05720
C1458       C  0.62724864  0.26385545  0.99367937    -0.33150
C1459       C  0.62125130  0.24761296  0.46819486     0.36100
C1460       C  0.62976390  0.22661884  0.47236320    -0.06080
C1461       C  0.63892199  0.22080314  0.50726792    -0.33050
C1462       C  0.64578939  0.23699624  0.03182180     0.36010
H1463       H  0.62305722  0.28052688  0.98731754     0.16380
O1464       O  0.61090305  0.25345745  0.43527539    -0.60540
H1465       H  0.64494513  0.20457388  0.51174994     0.16390
O1466       O  0.65855880  0.23115542  0.06174825    -0.60640
H1467       H  0.67285638  0.22992035  0.05069643     0.43390
H1468       H  0.59593827  0.24923723  0.93988472     0.43340
C1469       C  0.64362956  0.21577578  0.27485082    -0.05720
C1470       C  0.63252129  0.21123317  0.24125274    -0.33150
C1471       C  0.62604739  0.22829143  0.21682752     0.36100
C1472       C  0.63140500  0.24994212  0.22562169    -0.06080
C1473       C  0.63719283  0.25426928  0.26320095    -0.33050
C1474       C  0.64455508  0.23748579  0.28701038     0.36010
H1475       H  0.63094337  0.19465150  0.23190116     0.16380
O1476       O  0.61920884  0.22349992  0.18085629    -0.60540
H1477       H  0.64071747  0.27087076  0.27100061     0.16390
O1478       O  0.65452201  0.24285768  0.32019624    -0.60640
H1479       H  0.64300907  0.24591924  0.33829028     0.43390
H1480       H  0.60368856  0.22518419  0.18159210     0.43340
C1481       C  0.71014710  0.18767675  0.47945639    -0.05720
C1482       C  0.71143940  0.19725181  0.51525415    -0.33150
C1483       C  0.73051512  0.19814891  0.03564930     0.36100
C1484       C  0.74936053  0.19028727  0.01989649    -0.06080
C1485       C  0.74771793  0.17885639  0.48568046    -0.33050
C1486       C  0.72829167  0.17734579  0.46571035     0.36010
H1487       H  0.69771868  0.20489787  0.02688890     0.16380
O1488       O  0.73072240  0.20773746  0.07045405    -0.60540
H1489       H  0.76176686  0.17242622  0.47294220     0.16390
O1490       O  0.72788098  0.16789470  0.43075762    -0.60640
H1491       H  0.72374504  0.15251636  0.43602705     0.43390
H1492       H  0.72909854  0.19560141  0.08937570     0.43340
C1493       C  0.75239695  0.15827786  0.20091036    -0.05720
C1494       C  0.75713699  0.15516912  0.23975012    -0.33150
C1495       C  0.74111213  0.15567530  0.26760466     0.36100
C1496       C  0.71989482  0.15964259  0.25714876    -0.06080
C1497       C  0.71493108  0.16084690  0.21821834    -0.33050
C1498       C  0.73084457  0.16013481  0.19036683     0.36010
H1499       H  0.77340017  0.15351555  0.24876535     0.16380
O1500       O  0.74644957  0.15275158  0.30521171    -0.60540
H1501       H  0.69879298  0.16354511  0.20929352     0.16390
O1502       O  0.72519185  0.16234567  0.15273938    -0.60640
H1503       H  0.72382682  0.14729979  0.14351317     0.43390
H1504       H  0.74425943  0.13700898  0.31071343     0.43340
C1505       C  0.10971639  0.88470413  0.45599944    -0.05720
C1506       C  0.11678195  0.86785735  0.48041651    -0.33150
C1507       C  0.12852587  0.85061037  0.46630879     0.36100
C1508       C  0.13344795  0.84995413  0.42708427    -0.06080
C1509       C  0.12651123  0.86693735  0.40298891    -0.33050
C1510       C  0.11486037  0.88402411  0.41687401     0.36010
H1511       H  0.11316989  0.86799472  0.51056289     0.16380
O1512       O  0.13462064  0.83430295  0.49101270    -0.60540
H1513       H  0.13024297  0.86721016  0.37286741     0.16390
O1514       O  0.10947498  0.90052600  0.39193226    -0.60640
H1515       H  0.09652733  0.89526655  0.37887895     0.43390
H1516       H  0.14821840  0.83944115  0.50192095     0.43340
C1517       C  0.09380014  0.01992838  0.32637533    -0.05720
C1518       C  0.09798419  0.02356580  0.36485296    -0.33150
C1519       C  0.10051234  0.00578233  0.39005944     0.36100
C1520       C  0.09740236  0.98451999  0.37660681    -0.06080
C1521       C  0.09909699  0.98127775  0.33752213    -0.33050
C1522       C  0.09776884  0.99909741  0.31209650     0.36010
H1523       H  0.09562623  0.03949309  0.37638083     0.16380
O1524       O  0.10062489  0.00932573  0.42848650    -0.60540
H1525       H  0.09756239  0.96502568  0.32658738     0.16390
O1526       O  0.09603449  0.99550921  0.27374237    -0.60640
H1527       H  0.08223512  0.98794319  0.27016687     0.43390
H1528       H  0.11499654  0.00547482  0.43721708     0.43340
C1529       C  0.10184879  0.03353995  0.13669798    -0.05720
C1530       C  0.11192312  0.03603441  0.10146155    -0.33150
C1531       C  0.11559354  0.01776508  0.07925813     0.36100
C1532       C  0.10854228  0.99667980  0.09174938    -0.06080
C1533       C  0.10112206  0.99405145  0.12909583    -0.33050
C1534       C  0.09789040  0.01221933  0.15152029     0.36010
H1535       H  0.11520929  0.05215167  0.08964215     0.16380
O1536       O  0.12402119  0.02101191  0.04355610    -0.60540
H1537       H  0.09568640  0.97822256  0.13953665     0.16390
O1538       O  0.08856768  0.00909820  0.18651899    -0.60640
H1539       H  0.09951237  0.01342664  0.20521460     0.43390
H1540       H  0.13915869  0.01749334  0.04635813     0.43340
C1541       C  0.88881327  0.11222388  0.01848639    -0.05720
C1542       C  0.87141023  0.11648786  0.99443688    -0.33150
C1543       C  0.85390523  0.12798008  0.00747168     0.36100
C1544       C  0.85349848  0.13533088  0.04519598    -0.06080
C1545       C  0.87137379  0.13212336  0.06828972    -0.33050
C1546       C  0.88886801  0.12100370  0.05528968     0.36010
H1547       H  0.87085273  0.10999536  0.96604520     0.16380
O1548       O  0.83702460  0.13115025  0.98359651    -0.60540
H1549       H  0.87181553  0.13819723  0.09700156     0.16390
O1550       O  0.90564569  0.11821304  0.07957020    -0.60640
H1551       H  0.91564950  0.13031122  0.07309847     0.43390
H1552       H  0.82760648  0.11829950  0.98801016     0.43340
C1553       C  0.99009990  0.09130332  0.09475547    -0.05720
C1554       C  0.01039547  0.09379754  0.07841949    -0.33150
C1555       C  0.02861072  0.09658785  0.10120214     0.36100
C1556       C  0.02680400  0.09722482  0.14116542    -0.06080
C1557       C  0.00628032  0.09794407  0.15672290    -0.33050
C1558       C  0.98811331  0.09507022  0.13395800     0.36010
H1559       H  0.01245823  0.09057165  0.04844624     0.16380
O1560       O  0.04813811  0.09563034  0.08457661    -0.60540
H1561       H  0.00438223  0.09810272  0.18739713     0.16390
O1562       O  0.96886522  0.09238357  0.15138171    -0.60640
H1563       H  0.96184407  0.10653668  0.14775849     0.43390
H1564       H  0.05116003  0.07992878  0.08310511     0.43340
C1565       C  0.97204195  0.05991209  0.40721307    -0.05720
C1566       C  0.97090730  0.07014206  0.37097902    -0.33150
C1567       C  0.98891545  0.07223015  0.34734230     0.36100
C1568       C  0.00865406  0.06433956  0.35977932    -0.06080
C1569       C  0.01001453  0.05541669  0.39684831    -0.33050
C1570       C  0.99213436  0.05370755  0.42063488     0.36010
H1571       H  0.95579537  0.07539986  0.36002614     0.16380
O1572       O  0.98673801  0.08068512  0.31104680    -0.60540
H1573       H  0.02482340  0.04884019  0.40688488     0.16390
O1574       O  0.99444700  0.04567154  0.45702298    -0.60640
H1575       H  0.00074249  0.05778401  0.47157051     0.43390
H1576       H  0.98308640  0.06809494  0.29508019     0.43340
C1577       C  0.02799366  0.01034024  0.49207778    -0.05720
C1578       C  0.01393618  0.00387291  0.96348634    -0.33150
C1579       C  0.99353613  0.99711282  0.97246637     0.36100
C1580       C  0.98626484  0.99854655  0.51025180    -0.06080
C1581       C  0.00005810  0.00598349  0.53863926    -0.33050
C1582       C  0.02071749  0.01210385  0.52973770     0.36010
H1583       H  0.01877669  0.00341284  0.93399020     0.16380
O1584       O  0.98084675  0.98911421  0.94406896    -0.60540
H1585       H  0.99491497  0.00717299  0.56790142     0.16390
O1586       O  0.03382195  0.01941221  0.55808544    -0.60640
H1587       H  0.03697356  0.00643079  0.57426633     0.43390
H1588       H  0.97741927  0.00180754  0.92738625     0.43340
C1589       C  0.91108899  0.86945105  0.19067243    -0.05720
C1590       C  0.89898457  0.85474557  0.21330196    -0.33150
C1591       C  0.88271699  0.84207418  0.19745844     0.36100
C1592       C  0.87827862  0.84369895  0.15797240    -0.06080
C1593       C  0.89179759  0.85674998  0.13488184    -0.33050
C1594       C  0.90801468  0.86944821  0.15074211     0.36010
H1595       H  0.90115729  0.85398073  0.24392556     0.16380
O1596       O  0.87085429  0.82872193  0.22122636    -0.60540
H1597       H  0.88913926  0.85812443  0.10442641     0.16390
O1598       O  0.91980316  0.88282423  0.12693209    -0.60640
H1599       H  0.93247566  0.87438688  0.12078843     0.43390
H1600       H  0.86060973  0.83834845  0.23341821     0.43340
C1601       C  0.00146007  0.93250621  0.13104297    -0.05720
C1602       C  0.99932497  0.94058020  0.09347518    -0.33150
C1603       C  0.01694519  0.94337593  0.06932186     0.36100
C1604       C  0.03741324  0.93815682  0.08228650    -0.06080
C1605       C  0.03934284  0.92859569  0.11896160    -0.33050
C1606       C  0.02168331  0.92601390  0.14331135     0.36010
H1607       H  0.98410833  0.94621226  0.08361541     0.16380
O1608       O  0.01385282  0.95130208  0.03302778    -0.60540
H1609       H  0.05480242  0.92428672  0.12963297     0.16390
O1610       O  0.02467241  0.91879259  0.18016145    -0.60640
H1611       H  0.02133761  0.90300585  0.17995197     0.43390
H1612       H  0.01795075  0.96683771  0.03394157     0.43340
C1613       C  0.01548455  0.92463768  0.38534955    -0.05720
C1614       C  0.01773343  0.92352525  0.34557081    -0.33150
C1615       C  0.99991061  0.92157862  0.32158753     0.36100
C1616       C  0.97938727  0.92089710  0.33716412    -0.06080
C1617       C  0.97722911  0.92018386  0.37695005    -0.33050
C1618       C  0.99499126  0.92208405  0.40089220     0.36010
H1619       H  0.03314100  0.92624352  0.33280566     0.16380
O1620       O  0.00265652  0.92225799  0.28284038    -0.60540
H1621       H  0.96161210  0.91963020  0.38950551     0.16390
O1622       O  0.99204157  0.92332509  0.43951350    -0.60640
H1623       H  0.98796682  0.93853557  0.44386273     0.43390
H1624       H  0.00275120  0.90684890  0.27533412     0.43340
C1625       C  0.97380777  0.00601067  0.25683119    -0.05720
C1626       C  0.98992828  0.99146864  0.26563462    -0.33150
C1627       C  0.00821702  0.99200296  0.24428294     0.36100
C1628       C  0.01172441  0.00897501  0.21738313    -0.06080
C1629       C  0.99644627  0.02496367  0.21163335    -0.33050
C1630       C  0.97760032  0.02367197  0.23165476     0.36010
H1631       H  0.98711896  0.97762597  0.28478080     0.16380
O1632       O  0.02294910  0.97623919  0.25064314    -0.60540
H1633       H  0.99928040  0.03874961  0.19241353     0.16390
O1634       O  0.96192071  0.03803020  0.22290525    -0.60640
H1635       H  0.96159659  0.04801357  0.24461231     0.43390
H1636       H  0.02011394  0.96526834  0.23097543     0.43340
C1637       C  0.90313968  0.99617418  0.40757993    -0.05720
C1638       C  0.91000057  0.97514064  0.41853330    -0.33150
C1639       C  0.90920223  0.95786182  0.39322373     0.36100
C1640       C  0.90128641  0.96129324  0.35628035    -0.06080
C1641       C  0.89153579  0.98131974  0.34753215    -0.33050
C1642       C  0.89276982  0.99874816  0.37244614     0.36010
H1643       H  0.91759306  0.97235744  0.44585674     0.16380
O1644       O  0.91863218  0.93870722  0.40330509    -0.60540
H1645       H  0.88492897  0.98427730  0.31940401     0.16390
O1646       O  0.88509788  0.01851933  0.36095135    -0.60640
H1647       H  0.87034332  0.01854148  0.37030568     0.43390
H1648       H  0.90705438  0.92922070  0.41352914     0.43340
C1649       C  0.91451116  0.97652681  0.14350161    -0.05720
C1650       C  0.91284313  0.97852322  0.10385342    -0.33150
C1651       C  0.91198896  0.99929026  0.08619997     0.36100
C1652       C  0.91469410  0.01782869  0.10865772    -0.06080
C1653       C  0.91180894  0.01561060  0.14808400    -0.33050
C1654       C  0.90984141  0.99484265  0.16510062     0.36010
H1655       H  0.91512505  0.96440099  0.08663898     0.16380
O1656       O  0.91126526  0.00167203  0.04709208    -0.60540
H1657       H  0.91300560  0.02970304  0.16587720     0.16390
O1658       O  0.90745054  0.99287181  0.20383230    -0.60640
H1659       H  0.89267536  0.98773980  0.20773128     0.43390
H1660       H  0.91796308  0.98886002  0.03599158     0.43340
C1661       C  0.38368964  0.85796353  0.05467322    -0.05720
C1662       C  0.37324383  0.84174070  0.03399044    -0.33150
C1663       C  0.35774387  0.82823075  0.05080918     0.36100
C1664       C  0.35197391  0.83077470  0.08938427    -0.06080
C1665       C  0.36305105  0.84640865  0.11060396    -0.33050
C1666       C  0.37870099  0.85989605  0.09368937     0.36010
H1667       H  0.37690591  0.83953340  0.50421723     0.16380
O1668       O  0.34770616  0.81328935  0.02841072    -0.60540
H1669       H  0.35909306  0.84880035  0.14019673     0.16390
O1670       O  0.38866969  0.87513527  0.11555882    -0.60640
H1671       H  0.37973905  0.88816366  0.11352916     0.43390
H1672       H  0.35611769  0.79992692  0.03119152     0.43340
C1673       C  0.39436220  0.97641530  0.37241723    -0.05720
C1674       C  0.40822891  0.98009667  0.40286898    -0.33150
C1675       C  0.41669538  0.96258930  0.42438933     0.36100
C1676       C  0.41173384  0.94078633  0.41546484    -0.06080
C1677       C  0.39633381  0.93722246  0.38742422    -0.33050
C1678       C  0.38784120  0.95464339  0.36592777     0.36010
H1679       H  0.41356962  0.99650176  0.40850808     0.16380
O1680       O  0.42993196  0.96704727  0.45404534    -0.60540
H1681       H  0.39162486  0.92075877  0.38069540     0.16390
O1682       O  0.37371462  0.95016008  0.33734551    -0.60640
H1683       H  0.38218059  0.94395303  0.31665183     0.43390
H1684       H  0.42064546  0.97178788  0.47486466     0.43340
C1685       C  0.39288484  0.99570894  0.13789295    -0.05720
C1686       C  0.38946157  0.97370903  0.14830507    -0.33150
C1687       C  0.39561798  0.95732603  0.12378712     0.36100
C1688       C  0.40410425  0.96317607  0.08792575    -0.06080
C1689       C  0.40210896  0.98476607  0.07444753    -0.33050
C1690       C  0.39644870  0.00107935  0.09930617     0.36010
H1691       H  0.38633440  0.96927770  0.17787603     0.16380
O1692       O  0.39665601  0.93636116  0.13757811    -0.60540
H1693       H  0.40768978  0.98947051  0.04619691     0.16390
O1694       O  0.39851518  0.02245225  0.08764173    -0.60640
H1695       H  0.41385380  0.02593254  0.08884691     0.43390
H1696       H  0.38297972  0.92950366  0.13045386     0.43340
C1697       C  0.58788537  0.10168985  0.43707102    -0.05720
C1698       C  0.60527815  0.10775526  0.45948326    -0.33150
C1699       C  0.62135296  0.12114711  0.44448980     0.36100
C1700       C  0.62029150  0.12869215  0.40626235    -0.06080
C1701       C  0.60333805  0.12188127  0.38336812    -0.33050
C1702       C  0.58716453  0.10861484  0.39847467     0.36010
H1703       H  0.60636080  0.10231112  0.48900924     0.16380
O1704       O  0.63818329  0.12642486  0.46734734    -0.60540
H1705       H  0.60218716  0.12742237  0.35390768     0.16390
O1706       O  0.57045182  0.10313865  0.37549596    -0.60640
H1707       H  0.56014542  0.11489971  0.37844701     0.43390
H1708       H  0.63324892  0.13842225  0.48321798     0.43340
C1709       C  0.49014566  0.08287035  0.10196080    -0.05720
C1710       C  0.46809022  0.08526704  0.09905642    -0.33150
C1711       C  0.45439375  0.07578780  0.12639387     0.36100
C1712       C  0.46270505  0.06355439  0.15705428    -0.06080
C1713       C  0.48469964  0.06368819  0.16265973    -0.33050
C1714       C  0.49840769  0.07329930  0.13558196     0.36010
H1715       H  0.46133802  0.09268582  0.07362202     0.16380
O1716       O  0.43303878  0.07622585  0.12014779    -0.60540
H1717       H  0.49138269  0.05477047  0.18666936     0.16390
O1718       O  0.51977419  0.07120437  0.14048603    -0.60640
H1719       H  0.52290297  0.05619624  0.13292108     0.43390
H1720       H  0.42813851  0.08908305  0.13383519     0.43340
C1721       C  0.48858357  0.06139133  0.36844983    -0.05720
C1722       C  0.46939070  0.06692175  0.38557662    -0.33150
C1723       C  0.44980825  0.06055524  0.36955925     0.36100
C1724       C  0.44919511  0.04815561  0.33625527    -0.06080
C1725       C  0.46828633  0.04481940  0.31716131    -0.33050
C1726       C  0.48766356  0.05182995  0.33236238     0.36010
H1727       H  0.46955086  0.07383962  0.41366335     0.16380
O1728       O  0.43156087  0.06443567  0.38895060    -0.60540
H1729       H  0.46848824  0.03592548  0.29107595     0.16390
O1730       O  0.50594461  0.04633125  0.31442023    -0.60640
H1731       H  0.50949602  0.05894060  0.29737493     0.43390
H1732       H  0.42704554  0.07893530  0.37955316     0.43340
C1733       C  0.47691045  0.00526190  0.49144078    -0.05720
C1734       C  0.49122401  0.99631834  0.51759995    -0.33150
C1735       C  0.49877628  0.97565205  0.51303638     0.36100
C1736       C  0.49103602  0.96313122  0.48309224    -0.06080
C1737       C  0.47774344  0.97245676  0.45542196    -0.33050
C1738       C  0.47028130  0.99321589  0.95987685     0.36010
H1739       H  0.49778893  0.00597980  0.53995796     0.16380
O1740       O  0.51261597  0.96721350  0.53938234    -0.60540
H1741       H  0.47177775  0.96311514  0.93181397     0.16390
O1742       O  0.45779618  0.00218748  0.93174758    -0.60640
H1743       H  0.44499777  0.00730868  0.94475670     0.43390
H1744       H  0.52684743  0.97122710  0.52948624     0.43340
C1745       C  0.60399913  0.88077053  0.26407348    -0.05720
C1746       C  0.60447064  0.87754890  0.30400053    -0.33150
C1747       C  0.61999992  0.86494647  0.32183603     0.36100
C1748       C  0.63543529  0.85486794  0.29982706    -0.06080
C1749       C  0.63398764  0.85674795  0.25978063    -0.33050
C1750       C  0.61855654  0.86948727  0.24196134     0.36010
H1751       H  0.59331408  0.88561707  0.32193451     0.16380
O1752       O  0.62001464  0.86286304  0.36084843    -0.60540
H1753       H  0.64546109  0.84907896  0.24193270     0.16390
O1754       O  0.61852427  0.87144757  0.20295620    -0.60640
H1755       H  0.60888911  0.85969857  0.19426370     0.43390
H1756       H  0.62661914  0.87650193  0.37000058     0.43340
C1757       C  0.50387995  0.90364375  0.32798563    -0.05720
C1758       C  0.51162461  0.88951320  0.35635335    -0.33150
C1759       C  0.49778638  0.87946384  0.38287058     0.36100
C1760       C  0.47586750  0.88353219  0.38125674    -0.06080
C1761       C  0.46793971  0.89497842  0.34952268    -0.33050
C1762       C  0.48175658  0.90518460  0.32320030     0.36010
H1763       H  0.52849161  0.88783858  0.36018908     0.16380
O1764       O  0.50608852  0.86767919  0.41278979    -0.60540
H1765       H  0.45121828  0.89821663  0.34744776     0.16390
O1766       O  0.47353570  0.91766599  0.29399668    -0.60640
H1767       H  0.46871685  0.93112978  0.30595456     0.43390
H1768       H  0.50472299  0.85230976  0.40526576     0.43340
C1769       C  0.51881200  0.91628915  0.15203238    -0.05720
C1770       C  0.49948002  0.91992068  0.17003834    -0.33150
C1771       C  0.48030650  0.91369682  0.15310806     0.36100
C1772       C  0.48004883  0.90445962  0.11674012    -0.06080
C1773       C  0.49941566  0.89855455  0.10081322    -0.33050
C1774       C  0.51871160  0.90424474  0.11836477     0.36010
H1775       H  0.49906681  0.92858206  0.19642475     0.16380
O1776       O  0.46176384  0.91963365  0.16964557    -0.60540
H1777       H  0.49971069  0.89199369  0.07245516     0.16390
O1778       O  0.53726642  0.90025667  0.10000840    -0.60640
H1779       H  0.54144332  0.88563986  0.10938739     0.43390
H1780       H  0.45765055  0.90718844  0.18666165     0.43340
C1781       C  0.50414837  0.99089831  0.23393264    -0.05720
C1782       C  0.49512618  0.99509637  0.26943326    -0.33150
C1783       C  0.47571064  0.98604266  0.27966122     0.36100
C1784       C  0.46427406  0.97369470  0.25310096    -0.06080
C1785       C  0.47341310  0.96917298  0.21795968    -0.33050
C1786       C  0.49280464  0.97824388  0.20766911     0.36010
H1787       H  0.50384213  0.00427158  0.29042670     0.16380
O1788       O  0.46771200  0.99031067  0.31493573    -0.60540
H1789       H  0.46465353  0.96003686  0.19697570     0.16390
O1790       O  0.50077762  0.97390066  0.17244741    -0.60640
H1791       H  0.49194530  0.98218670  0.15407341     0.43390
H1792       H  0.47191437  0.97785715  0.33153004     0.43340
C1793       C  0.54939202  0.02278502  0.07306417    -0.05720
C1794       C  0.57104275  0.01773534  0.07075547    -0.33150
C1795       C  0.57935965  0.99951174  0.09052838     0.36100
C1796       C  0.56589193  0.98518206  0.11126942    -0.06080
C1797       C  0.54426910  0.98968779  0.11187738    -0.33050
C1798       C  0.53607870  0.00852942  0.09449017     0.36010
H1799       H  0.58173957  0.02836715  0.05469219     0.16380
O1800       O  0.60070280  0.99626291  0.09036891    -0.60540
H1801       H  0.53375750  0.97941839  0.12878753     0.16390
O1802       O  0.51565978  0.01419473  0.10222745    -0.60640
H1803       H  0.50684355  0.00077817  0.10086643     0.43390
H1804       H  0.60637151  0.00494093  0.11163830     0.43340
C1805       C  0.56287088  0.99985622  0.40176842    -0.05720
C1806       C  0.57333026  0.00643807  0.36812257    -0.33150
C1807       C  0.58074096  0.99081217  0.34316853     0.36100
C1808       C  0.57644536  0.96857595  0.35103394    -0.06080
C1809       C  0.57134719  0.96234696  0.38861800    -0.33050
C1810       C  0.56387161  0.97780536  0.41371558     0.36010
H1811       H  0.57339633  0.02334577  0.35885594     0.16380
O1812       O  0.58714514  0.99744786  0.30737826    -0.60540
H1813       H  0.56889039  0.94528843  0.39592108     0.16390
O1814       O  0.55576472  0.97099139  0.44835387    -0.60640
H1815       H  0.54211611  0.96360769  0.44259651     0.43390
H1816       H  0.60271691  0.99617070  0.30770603     0.43340
C1817       C  0.13268161  0.34626691  0.07099602    -0.05720
C1818       C  0.13264214  0.35215954  0.03200328    -0.33150
C1819       C  0.11660838  0.36464048  0.01601019     0.36100
C1820       C  0.09991545  0.37158866  0.03893793    -0.06080
C1821       C  0.09983647  0.36568925  0.07796362    -0.33050
C1822       C  0.11604607  0.35325340  0.09406416     0.36010
H1823       H  0.14542590  0.34754184  0.01360666     0.16380
O1824       O  0.11796483  0.37065043  0.47817148    -0.60540
H1825       H  0.08709447  0.37061849  0.09617974     0.16390
O1826       O  0.11522977  0.34780094  0.13216754    -0.60640
H1827       H  0.12099310  0.36068342  0.14534457     0.43390
H1828       H  0.11266701  0.35787354  0.46413096     0.43340
C1829       C  0.37409427  0.34912761  0.39647573    -0.05720
C1830       C  0.38464500  0.36486063  0.37347844    -0.33150
C1831       C  0.39758019  0.38095561  0.38967906     0.36100
C1832       C  0.40005148  0.38166792  0.42968907    -0.06080
C1833       C  0.39090526  0.36489991  0.45227660    -0.33050
C1834       C  0.37811888  0.34877575  0.43615604     0.36010
H1835       H  0.38189052  0.36554134  0.34300138     0.16380
O1836       O  0.40629563  0.39685550  0.36627656    -0.60540
H1837       H  0.39307937  0.36462777  0.48291750     0.16390
O1838       O  0.36933459  0.33295034  0.45969865    -0.60640
H1839       H  0.35749429  0.33999907  0.47274290     0.43390
H1840       H  0.41998892  0.39102376  0.35802382     0.43340
C1841       C  0.27302812  0.35553507  0.25429024    -0.05720
C1842       C  0.25231779  0.35896627  0.26777892    -0.33150
C1843       C  0.23545030  0.36138178  0.24250136     0.36100
C1844       C  0.23937949  0.36124614  0.20330077    -0.06080
C1845       C  0.26061430  0.36355241  0.19068766    -0.33050
C1846       C  0.27744803  0.36032693  0.21596179     0.36010
H1847       H  0.24870128  0.35699013  0.29785529     0.16380
O1848       O  0.21523376  0.36080091  0.25637012    -0.60540
H1849       H  0.26423781  0.36489276  0.16054839     0.16390
O1850       O  0.29757887  0.35904897  0.20207202    -0.60640
H1851       H  0.30368443  0.37390569  0.20418132     0.43390
H1852       H  0.21118083  0.37622882  0.25773932     0.43340
C1853       C  0.23341753  0.33501763  0.99623000    -0.05720
C1854       C  0.23323165  0.33397501  0.45646909    -0.33150
C1855       C  0.25228275  0.33505977  0.43627577     0.36100
C1856       C  0.27154598  0.33380541  0.45643177    -0.06080
C1857       C  0.27161763  0.33912615  0.49498212    -0.33050
C1858       C  0.25239400  0.34142050  0.01419761     0.36010
H1859       H  0.21871056  0.33007729  0.44156841     0.16380
O1860       O  0.25186847  0.33365236  0.39738295    -0.60540
H1861       H  0.28627905  0.33944310  0.51087953     0.16390
O1862       O  0.25256453  0.34624492  0.05209084    -0.60640
H1863       H  0.24830770  0.36162457  0.05299437     0.43390
H1864       H  0.25615832  0.34830377  0.38757073     0.43340
C1865       C  0.13008294  0.15221674  0.32907418    -0.05720
C1866       C  0.12720789  0.15383117  0.28917793    -0.33150
C1867       C  0.11134084  0.14173250  0.27045904     0.36100
C1868       C  0.09773839  0.12743696  0.29136343    -0.06080
C1869       C  0.09967797  0.12697873  0.33141241    -0.33050
C1870       C  0.11552960  0.13901965  0.35013337     0.36010
H1871       H  0.13798767  0.16372918  0.27191488     0.16380
O1872       O  0.11035482  0.14293474  0.23143852    -0.60540
H1873       H  0.08934745  0.11649082  0.34853272     0.16390
O1874       O  0.11683576  0.13730684  0.38910704    -0.60640
H1875       H  0.12407249  0.12342379  0.39452264     0.43390
H1876       H  0.10090978  0.15521864  0.22546548     0.43340
C1877       C  0.19579050  0.27764622  0.20362469    -0.05720
C1878       C  0.18030076  0.27304916  0.23188705    -0.33150
C1879       C  0.18023966  0.25328782  0.25387666     0.36100
C1880       C  0.19546744  0.23731112  0.24724638    -0.06080
C1881       C  0.20984949  0.24151422  0.21711534    -0.33050
C1882       C  0.21044085  0.26128122  0.19635526     0.36010
H1883       H  0.16873196  0.28518416  0.23808415     0.16380
O1884       O  0.16618266  0.25051757  0.28329064    -0.60540
H1885       H  0.22166749  0.22967196  0.21058597     0.16390
O1886       O  0.22548146  0.26424539  0.16854276    -0.60640
H1887       H  0.23852447  0.26874467  0.18214530     0.43390
H1888       H  0.15370052  0.24315201  0.27198960     0.43340
C1889       C  0.19124546  0.22006669  0.45328717    -0.05720
C1890       C  0.17172164  0.23002999  0.46069885    -0.33150
C1891       C  0.17064043  0.24767174  0.48585073     0.36100
C1892       C  0.18935147  0.25604881  0.50196025    -0.06080
C1893       C  0.20863614  0.24745326  0.49085173    -0.33050
C1894       C  0.20951475  0.22862780  0.47052745     0.36010
H1895       H  0.15728062  0.22353502  0.44855048     0.16380
O1896       O  0.15143077  0.25554695  0.49602010    -0.60540
H1897       H  0.22342927  0.25378172  0.50206474     0.16390
O1898       O  0.22822528  0.21784037  0.47035817    -0.60640
H1899       H  0.23185888  0.21472585  0.49741766     0.43390
H1900       H  0.14888506  0.26783680  0.47791528     0.43340
C1901       C  0.26276767  0.21579100  0.36583912    -0.05720
C1902       C  0.25559144  0.22800927  0.39594937    -0.33150
C1903       C  0.24950429  0.24926880  0.39009974     0.36100
C1904       C  0.25401600  0.26002787  0.35515898    -0.06080
C1905       C  0.26273467  0.24832848  0.32530967    -0.33050
C1906       C  0.26691724  0.22628902  0.33025857     0.36010
H1907       H  0.25365081  0.22054389  0.42368095     0.16380
O1908       O  0.24024871  0.25979465  0.41957181    -0.60540
H1909       H  0.26682391  0.25633513  0.29841662     0.16390
O1910       O  0.27407374  0.21513934  0.29958938    -0.60640
H1911       H  0.28614606  0.20654990  0.30904947     0.43390
H1912       H  0.22519383  0.26110258  0.41220125     0.43340
C1913       C  0.34385952  0.11992350  0.18153870    -0.05720
C1914       C  0.34327985  0.11762719  0.22172142    -0.33150
C1915       C  0.35427822  0.10102487  0.24116644     0.36100
C1916       C  0.36619924  0.08620813  0.22057920    -0.06080
C1917       C  0.36639708  0.08840966  0.18040273    -0.33050
C1918       C  0.35546971  0.10483425  0.16107462     0.36010
H1919       H  0.33442970  0.12890130  0.23834614     0.16380
O1920       O  0.35334121  0.09963370  0.28017455    -0.60540
H1921       H  0.37523683  0.07734203  0.16333061     0.16390
O1922       O  0.35703633  0.10638635  0.12211863    -0.60640
H1923       H  0.34608738  0.09620507  0.11243381     0.43390
H1924       H  0.36500260  0.10918706  0.28914522     0.43340
C1925       C  0.32190116  0.22887127  0.23354230    -0.05720
C1926       C  0.32147226  0.22998212  0.27329051    -0.33150
C1927       C  0.32334559  0.25000256  0.29156057     0.36100
C1928       C  0.32508185  0.26974641  0.27010782    -0.06080
C1929       C  0.32853938  0.26832622  0.23068265    -0.33050
C1930       C  0.32750826  0.24802384  0.21261808     0.36010
H1931       H  0.31877452  0.21531092  0.29022865     0.16380
O1932       O  0.32266441  0.24994260  0.33049252    -0.60540
H1933       H  0.33075632  0.28304004  0.21349941     0.16390
O1934       O  0.33034933  0.24734717  0.17399251    -0.60640
H1935       H  0.34533899  0.24350423  0.17058679     0.43390
H1936       H  0.33761121  0.25101323  0.33878118     0.43340
C1937       C  0.33541471  0.25153575  0.45764471    -0.05720
C1938       C  0.34712930  0.25690025  0.98997122    -0.33150
C1939       C  0.35141024  0.24082343  0.01773466     0.36100
C1940       C  0.34381471  0.21929391  0.01298613    -0.06080
C1941       C  0.33623725  0.21332830  0.47722774    -0.33050
C1942       C  0.33185836  0.22937064  0.44957384     0.36010
H1943       H  0.35049462  0.27376497  0.99611738     0.16380
O1944       O  0.36013151  0.24691343  0.05172014    -0.60540
H1945       H  0.33088313  0.19679622  0.47254786     0.16390
O1946       O  0.32227639  0.22349108  0.41611741    -0.60640
H1947       H  0.30761267  0.21907831  0.42306553     0.43390
H1948       H  0.37528552  0.24338767  0.04974619     0.43340
C1949       C  0.28492736  0.30886265  0.10385989    -0.05720
C1950       C  0.29516293  0.29850609  0.07408421    -0.33150
C1951       C  0.29907945  0.27639385  0.07961869     0.36100
C1952       C  0.29659108  0.26725486  0.11663774    -0.06080
C1953       C  0.29594153  0.28134489  0.14764568    -0.33050
C1954       C  0.29173777  0.30322834  0.14070141     0.36010
H1955       H  0.29363818  0.30471829  0.04508727     0.16380
O1956       O  0.30203923  0.26369485  0.04866027    -0.60540
H1957       H  0.29599654  0.27521585  0.17678843     0.16390
O1958       O  0.28832250  0.31677595  0.17047175    -0.60640
H1959       H  0.27655938  0.31015433  0.18564486     0.43390
H1960       H  0.31678115  0.26679389  0.04073479     0.43340
C1961       C  0.23540145  0.15395151  0.48861396    -0.05720
C1962       C  0.23378087  0.17003756  0.01616773    -0.33150
C1963       C  0.25110646  0.17560017  0.03984988     0.36100
C1964       C  0.27051168  0.16462463  0.03731278    -0.06080
C1965       C  0.27143280  0.14725147  0.51216673    -0.33050
C1966       C  0.25435456  0.14207740  0.48790898     0.36010
H1967       H  0.21950310  0.17936819  0.01764600     0.16380
O1968       O  0.24903698  0.19227132  0.06465641    -0.60540
H1969       H  0.28589598  0.13828082  0.50982387     0.16390
O1970       O  0.25682043  0.12599010  0.46206420    -0.60640
H1971       H  0.25078096  0.11269026  0.47462680     0.43390
H1972       H  0.24278446  0.18547345  0.08803268     0.43340
C1973       C  0.25092825  0.15031013  0.21222598    -0.05720
C1974       C  0.23018539  0.15142520  0.19761000    -0.33150
C1975       C  0.21316377  0.14495659  0.22080513     0.36100
C1976       C  0.21760319  0.14021369  0.25916095    -0.06080
C1977       C  0.23698279  0.12992504  0.26641791    -0.33050
C1978       C  0.25451251  0.13673561  0.24437220     0.36010
H1979       H  0.22705216  0.16009376  0.17100247     0.16380
O1980       O  0.19315800  0.15058081  0.21003982    -0.60540
H1981       H  0.23991026  0.12286545  0.29447257     0.16390
O1982       O  0.27450522  0.13356988  0.25816061    -0.60640
H1983       H  0.27995315  0.12125098  0.24368389     0.43390
H1984       H  0.18584783  0.13664057  0.20453183     0.43340
O1985       O  0.33112742  0.13891980  0.62516217    -0.81140
O1986       O  0.29229583  0.23096739  0.59623984    -0.65830
O1987       O  0.32538961  0.18320368  0.62343329    -1.12440
C1988       C  0.26627782  0.16724849  0.69954491     1.05740
O1989       O  0.28678650  0.23776848  0.65691094    -0.79040
O1990       O  0.29053253  0.21027493  0.71655473    -0.66620
Ni1991     Ni  0.33202220  0.16270527  0.58652671     1.34870
C1992       C  0.31045944  0.21061791  0.71439467     0.84480
O1993       O  0.32947478  0.21690828  0.57374661    -0.79580
O1994       O  0.33575759  0.18530814  0.54606326    -0.89860
C1995       C  0.29163781  0.24416388  0.62327703     0.84050
O1996       O  0.30290524  0.15726776  0.57157314    -0.68060
O1997       O  0.25845594  0.18528695  0.68836187    -0.87350
C1998       C  0.28988528  0.17151036  0.55957372     0.84880
C1999       C  0.33686931  0.20620175  0.54664434     1.06450
H2000       H  0.27791178  0.18556148  0.62650683     0.38250
O2001       O  0.28821549  0.19387044  0.64054497    -1.10000
O2002       O  0.31982803  0.19683598  0.69411096    -0.66660
Ni2003     Ni  0.30675919  0.17397903  0.66307778     1.26350
O2004       O  0.29317754  0.19170721  0.56559760    -0.66880
O2005       O  0.28622867  0.16400420  0.70090098    -0.79180
C2006       C  0.33327951  0.13858465  0.66177218     0.84270
O2007       O  0.32636090  0.15369384  0.68214654    -0.66350
Ni2008     Ni  0.27256358  0.21141276  0.67269592     1.27450
Ni2009     Ni  0.30838051  0.20618805  0.60693591     1.26060
H2010       H  0.33841577  0.18894912  0.63384303     0.38810
O2011       O  0.25676316  0.18195928  0.83916291    -0.81140
O2012       O  0.16171168  0.17414364  0.82618975    -0.65830
O2013       O  0.21750787  0.19490243  0.84701052    -1.12440
C2014       C  0.22015505  0.15319975  0.95547997     1.05740
O2015       O  0.15414534  0.15661878  0.88185389    -0.79040
O2016       O  0.17644702  0.18922292  0.92161288    -0.66620
Ni2017     Ni  0.23815126  0.19772201  0.80782856     1.34870
C2018       C  0.19297416  0.20016511  0.93019119     0.84480
O2019       O  0.18624472  0.20871394  0.79611716    -0.79580
O2020       O  0.21976812  0.21385476  0.77549053    -0.89860
C2021       C  0.14963076  0.16197368  0.84710697     0.84050
O2022       O  0.23157941  0.17143525  0.78501521    -0.68060
O2023       O  0.20060106  0.15815083  0.95773009    -0.87350
C2024       C  0.21523331  0.15952526  0.78251824     0.84880
C2025       C  0.20025842  0.21859393  0.77460163     1.06450
H2026       H  0.19755447  0.14825620  0.86179453     0.38250
O2027       O  0.19609822  0.16220357  0.87341232    -1.10000
O2028       O  0.21156369  0.19359485  0.92200322    -0.66660
Ni2029     Ni  0.22311550  0.17313945  0.88602390     1.26350
O2030       O  0.19765113  0.16427028  0.79699107    -0.66880
O2031       O  0.22803659  0.15099822  0.92310030    -0.79180
C2032       C  0.26000745  0.19205592  0.86918465     0.84270
O2033       O  0.25061322  0.18454768  0.89820710    -0.66350
Ni2034     Ni  0.17812429  0.15846603  0.91712970     1.27450
Ni2035     Ni  0.18991452  0.18490154  0.83497236     1.26060
H2036       H  0.21633096  0.20902390  0.85811965     0.38810
O2037       O  0.35529276  0.33330289  0.84382928    -0.81140
O2038       O  0.26325569  0.29319259  0.82540980    -0.65830
O2039       O  0.31178947  0.32737922  0.84993006    -1.12440
C2040       C  0.32246916  0.26805553  0.93796448     1.05740
O2041       O  0.25888611  0.29262092  0.88566851    -0.79040
O2042       O  0.28253180  0.29845381  0.94780455    -0.66620
Ni2043     Ni  0.33072203  0.33517280  0.80975598     1.34870
C2044       C  0.28701178  0.31830421  0.94227701     0.84480
O2045       O  0.27776060  0.33178817  0.80477454    -0.79580
O2046       O  0.30734637  0.34120916  0.77361753    -0.89860
C2047       C  0.25549495  0.28378205  0.85435443     0.84050
O2048       O  0.33445950  0.30533188  0.79403678    -0.68060
O2049       O  0.30346809  0.26206009  0.93146352    -0.87350
C2050       C  0.32005304  0.29110634  0.78771095     0.84880
C2051       C  0.28730336  0.34260252  0.77906042     1.06450
H2052       H  0.30537516  0.27793148  0.85938513     0.38250
O2053       O  0.29925068  0.28972744  0.87267632    -1.10000
O2054       O  0.30249735  0.32449727  0.92167434    -0.66660
Ni2055     Ni  0.32111726  0.30805561  0.88964178     1.26350
O2056       O  0.30083409  0.29441910  0.79609759    -0.66880
O2057       O  0.33002057  0.28711280  0.92918542    -0.79180
C2058       C  0.35669418  0.33563682  0.88011003     0.84270
O2059       O  0.34310648  0.32738805  0.90308065    -0.66350
Ni2060     Ni  0.28073089  0.27722643  0.90962606     1.27450
Ni2061     Ni  0.28784528  0.31030538  0.83692436     1.26060
H2062       H  0.30703011  0.34082775  0.86027611     0.38810
O2063       O  0.15412805  0.33321378  0.62312461    -0.81140
O2064       O  0.25004082  0.31102764  0.62852215    -0.65830
O2065       O  0.19608854  0.33313401  0.61122282    -1.12440
C2066       C  0.19099453  0.27024836  0.53536403     1.05740
O2067       O  0.25375095  0.30242655  0.56836299    -0.79040
O2068       O  0.22250341  0.30039165  0.51797871    -0.66620
Ni2069     Ni  0.17949291  0.33895475  0.65383712     1.34870
C2070       C  0.21891116  0.32055748  0.51830510     0.84480
O2071       O  0.23102291  0.34709879  0.64492054    -0.79580
O2072       O  0.20424140  0.34756773  0.68560369    -0.89860
C2073       C  0.26170529  0.30824385  0.59984972     0.84050
O2074       O  0.18002209  0.30921764  0.67317824    -0.68060
O2075       O  0.20574726  0.26503584  0.55792888    -0.87350
C2076       C  0.19684625  0.29901517  0.68135035     0.84880
C2077       C  0.22348108  0.35255361  0.67624555     1.06450
H2078       H  0.20739900  0.28634855  0.61444593     0.38250
O2079       O  0.21227409  0.29733153  0.59635993    -1.10000
O2080       O  0.20499944  0.32800448  0.54015041    -0.66660
Ni2081     Ni  0.18808646  0.31107433  0.57655449     1.26350
O2082       O  0.21486778  0.30644193  0.66986717    -0.66880
O2083       O  0.18161716  0.28852421  0.53832117    -0.79180
C2084       C  0.15122048  0.33464939  0.58668594     0.84270
O2085       O  0.16399466  0.32678017  0.56268493    -0.66350
Ni2086     Ni  0.22969646  0.28346501  0.56267769     1.27450
Ni2087     Ni  0.22249802  0.32169604  0.62167677     1.26060
H2088       H  0.19807508  0.34684589  0.59758716     0.38810
O2089       O  0.59174429  0.90322093  0.71174925    -0.81140
O2090       O  0.53575316  0.98732460  0.70105148    -0.65830
O2091       O  0.57428700  0.94237796  0.72175294    -1.12440
C2092       C  0.51825769  0.91943765  0.80792271     1.05740
O2093       O  0.53696021  0.98982474  0.76176530    -0.79040
O2094       O  0.54456379  0.96419962  0.82174909    -0.66620
Ni2095     Ni  0.58246684  0.92688355  0.67766639     1.34870
C2096       C  0.56337617  0.95797141  0.82210839     0.84480
O2097       O  0.57345405  0.97816819  0.67492911    -0.79580
O2098       O  0.57526690  0.94984973  0.63867217    -0.89860
C2099       C  0.52705838  0.99313154  0.73113803     0.84050
O2100       O  0.55459978  0.91469370  0.67338635    -0.68060
O2101       O  0.51130852  0.93874784  0.80426201    -0.87350
C2102       C  0.53856487  0.92644705  0.66707145     0.84880
C2103       C  0.57366852  0.97043924  0.64226000     1.06450
H2104       H  0.52559084  0.94182536  0.73355058     0.38250
O2105       O  0.53712215  0.94901487  0.74628563    -1.10000
O2106       O  0.57056696  0.94453082  0.79858326    -0.66660
Ni2107     Ni  0.55635972  0.92760621  0.75943544     1.26350
O2108       O  0.53915606  0.94705688  0.67243941    -0.66880
O2109       O  0.53656718  0.91362945  0.79597352    -0.79180
C2110       C  0.58962400  0.89735278  0.74705060     0.84270
O2111       O  0.57639295  0.90577401  0.76939217    -0.66350
Ni2112     Ni  0.52381107  0.96479760  0.78388735     1.27450
Ni2113     Ni  0.55496800  0.96432176  0.71019558     1.26060
H2114       H  0.58671087  0.94862991  0.73352154     0.38810
O2115       O  0.48110090  0.03612035  0.95580989    -0.81140
O2116       O  0.55775420  0.07852677  0.93380451    -0.65830
O2117       O  0.51999407  0.03727179  0.97511895    -1.12440
C2118       C  0.50301141  0.08397599  0.56654072     1.05740
O2119       O  0.56827826  0.09007193  0.49139715    -0.79040
O2120       O  0.55360665  0.05739095  0.54046024    -0.66620
Ni2121     Ni  0.50481035  0.01944454  0.94255200     1.34870
C2122       C  0.54087429  0.04270431  0.55316401     0.84480
O2123       O  0.55047862  0.03517032  0.91937392    -0.79580
O2124       O  0.53022664  0.00506111  0.93147796    -0.89860
C2125       C  0.57024309  0.08930962  0.95499555     0.84050
O2126       O  0.50878201  0.03479351  0.89615711    -0.68060
O2127       O  0.52326654  0.08534540  0.56777796    -0.87350
C2128       C  0.50626939  0.05481789  0.89376997     0.84880
C2129       C  0.54731634  0.01430399  0.91931631     1.06450
H2130       H  0.52114288  0.08953738  0.97531769     0.38250
O2131       O  0.52710595  0.07708560  0.98838423    -1.10000
O2132       O  0.52087050  0.04460231  0.54851696    -0.66660
Ni2133     Ni  0.50550448  0.05804881  0.50533506     1.26350
O2134       O  0.51677980  0.06724180  0.91576537    -0.66880
O2135       O  0.49355570  0.07929617  0.53599394    -0.79180
C2136       C  0.47627830  0.02867175  0.98839931     0.84270
O2137       O  0.48209516  0.03930331  0.51699160    -0.66350
Ni2138     Ni  0.54525228  0.08654839  0.52782778     1.27450
Ni2139     Ni  0.53855276  0.05723003  0.95268811     1.26060
H2140       H  0.52814001  0.02745319  0.99078329     0.38810
O2141       O  0.40093502  0.87144631  0.99830310    -0.81140
O2142       O  0.48196718  0.92883178  0.96240759    -0.65830
O2143       O  0.44086004  0.88820925  0.99730483    -1.12440
C2144       C  0.41963139  0.94939200  0.56902292     1.05740
O2145       O  0.48613710  0.93330279  0.52278989    -0.79040
O2146       O  0.46193381  0.93175126  0.58642802    -0.66620
Ni2147     Ni  0.42237219  0.87743283  0.95921453     1.34870
C2148       C  0.46325176  0.91150997  0.59011448     0.84480
O2149       O  0.47289325  0.88826246  0.94648704    -0.79580
O2150       O  0.44298132  0.88064502  0.91672663    -0.89860
C2151       C  0.48961501  0.93984301  0.98902496     0.84050
O2152       O  0.41124058  0.90579192  0.94759573    -0.68060
O2153       O  0.43584974  0.95954684  0.55523426    -0.87350
C2154       C  0.42241820  0.92175641  0.93467225     0.84880
C2155       C  0.46321022  0.88274189  0.91682496     1.06450
H2156       H  0.43674652  0.93717607  0.49611928     0.38250
O2157       O  0.44622773  0.92815274  0.51035224    -1.10000
O2158       O  0.45202114  0.89876469  0.56975269    -0.66660
Ni2159     Ni  0.42922147  0.90722835  0.53424296     1.26350
O2160       O  0.44266298  0.92153584  0.93726979    -0.66880
O2161       O  0.41720319  0.92846966  0.56872713    -0.79180
C2162       C  0.39970792  0.87226704  0.53490814     0.84270
O2163       O  0.41153861  0.88466719  0.55472124    -0.66350
Ni2164     Ni  0.46165201  0.94741421  0.53976865     1.27450
Ni2165     Ni  0.46056340  0.90866169  0.97798945     1.26060
H2166       H  0.44805688  0.87627110  0.00970766     0.38810
O2167       O  0.43200883  0.97691853  0.72379600    -0.81140
O2168       O  0.39129859  0.05897151  0.71666504    -0.65830
O2169       O  0.43144392  0.01739926  0.74123227    -1.12440
C2170       C  0.39192510  0.99334566  0.84128064     1.05740
O2171       O  0.37699759  0.06324091  0.77472989    -0.79040
O2172       O  0.41320577  0.04997603  0.81542481    -0.66620
Ni2173     Ni  0.44536060  0.00233582  0.70332203     1.34870
C2174       C  0.42914031  0.03806874  0.82173420     0.84480
O2175       O  0.43090095  0.05227620  0.69026812    -0.79580
O2176       O  0.45778283  0.02880162  0.68438919    -0.89860
C2177       C  0.37887052  0.06846535  0.73892113     0.84050
O2178       O  0.42514486  0.00340556  0.66419047    -0.68060
O2179       O  0.39077503  0.01397509  0.84642008    -0.87350
C2180       C  0.40579947  0.00769137  0.66520019     0.84880
C2181       C  0.44956945  0.04744560  0.67888902     1.06450
H2182       H  0.38152733  0.01690095  0.75274572     0.38250
O2183       O  0.39388824  0.02320179  0.76464413    -1.10000
O2184       O  0.42832087  0.01750850  0.81589828    -0.66660
Ni2185     Ni  0.41329454  0.00131809  0.77574306     1.26350
O2186       O  0.39795281  0.02022657  0.68939211    -0.66880
O2187       O  0.39434516  0.98651709  0.80832893    -0.79180
C2188       C  0.44133743  0.97269461  0.75471661     0.84270
O2189       O  0.43250915  0.97838597  0.78473999    -0.66350
Ni2190     Ni  0.38516645  0.03838601  0.80847320     1.27450
Ni2191     Ni  0.41169223  0.03807632  0.72738482     1.26060
H2192       H  0.44251617  0.02482081  0.75470654     0.38810
O2193       O  0.92581192  0.88606107  0.74605886    -0.81140
O2194       O  0.94781607  0.98319136  0.78182887    -0.65830
O2195       O  0.92588663  0.93002979  0.74683091    -1.12440
C2196       C  0.98510044  0.93822104  0.65940362     1.05740
O2197       O  0.94744455  0.99097751  0.72207383    -0.79040
O2198       O  0.94983817  0.97033508  0.65630130    -0.66620
Ni2199     Ni  0.92125562  0.90799350  0.78457403     1.34870
C2200       C  0.93134320  0.96267530  0.65900669     0.84480
O2201       O  0.91348305  0.96027154  0.79484860    -0.79580
O2202       O  0.91422157  0.92852079  0.82578011    -0.89860
C2203       C  0.95332618  0.99581431  0.75498123     0.84050
O2204       O  0.95044663  0.90750144  0.79985735    -0.68060
O2205       O  0.98825156  0.95670684  0.67427320    -0.87350
C2206       C  0.96032827  0.92393689  0.81270043     0.84880
C2207       C  0.90923959  0.94872369  0.82382165     1.06450
H2208       H  0.97227080  0.94579598  0.74427640     0.38250
O2209       O  0.95999603  0.95080978  0.73056135    -1.10000
O2210       O  0.92745367  0.94519748  0.67763942    -0.66660
Ni2211     Ni  0.94661283  0.92704148  0.70731806     1.26350
O2212       O  0.95385525  0.94324549  0.80637401    -0.66880
O2213       O  0.96855957  0.92592692  0.66657110    -0.79180
C2214       C  0.92394423  0.88678467  0.70943619     0.84270
O2215       O  0.93178220  0.90233407  0.68875094    -0.66350
Ni2216     Ni  0.96828714  0.97441384  0.69812228     1.27450
Ni2217     Ni  0.93704858  0.95610778  0.76485188     1.26060
H2218       H  0.91219456  0.93288495  0.73581810     0.38810
O2219       O  0.90634730  0.09061236  0.97243318    -0.81140
O2220       O  0.95179559  0.00041603  0.99018427    -0.65830
O2221       O  0.91797764  0.04987559  0.99547708    -1.12440
C2222       C  0.97509018  0.07575654  0.57639896     1.05740
O2223       O  0.95697547  0.00318730  0.55012827    -0.79040
O2224       O  0.94803403  0.03393982  0.60027632    -0.66620
Ni2225     Ni  0.90931012  0.06247135  0.94818990     1.34870
C2226       C  0.92856222  0.03534284  0.59307156     0.84480
O2227       O  0.91455670  0.00985115  0.96558630    -0.79580
O2228       O  0.90880020  0.03472566  0.92041168    -0.89860
C2229       C  0.96364422  0.99735821  0.01825176     0.84050
O2230       O  0.93801096  0.06885672  0.93254510    -0.68060
O2231       O  0.98229868  0.05669657  0.57493100    -0.87350
C2232       C  0.95238198  0.05470944  0.92997555     0.84880
C2233       C  0.90849643  0.01482143  0.93248419     1.06450
H2234       H  0.96620164  0.04887648  0.50392292     0.38250
O2235       O  0.95531756  0.04298078  0.52042896    -1.10000
O2236       O  0.92165673  0.04883408  0.56845055    -0.66660
Ni2237     Ni  0.93648463  0.06564421  0.52921464     1.26350
O2238       O  0.95025256  0.03577684  0.94579694    -0.66880
O2239       O  0.95643314  0.08091542  0.56417952    -0.79180
C2240       C  0.90492338  0.09607838  0.50754069     0.84270
O2241       O  0.91608229  0.08752704  0.53414185    -0.66350
Ni2242     Ni  0.96935874  0.02992696  0.56307229     1.27450
Ni2243     Ni  0.93515521  0.02560841  0.99200670     1.26060
H2244       H  0.90513431  0.04539292  0.00849044     0.38810
O2245       O  0.05676658  0.00445048  0.95167774    -0.81140
O2246       O  0.08766846  0.91506261  0.94735105    -0.65830
O2247       O  0.05416888  0.96278886  0.97108917    -1.12440
C2248       C  0.10318857  0.97987230  0.56315526     1.05740
O2249       O  0.09952570  0.90764813  0.50693774    -0.79040
O2250       O  0.06978159  0.92859830  0.55204924    -0.66620
Ni2251     Ni  0.04186688  0.98043643  0.93216598     1.34870
C2252       C  0.05673402  0.94352657  0.55877945     0.84480
O2253       O  0.04891808  0.92841561  0.92005153    -0.79580
O2254       O  0.02668193  0.95650091  0.91271112    -0.89860
C2255       C  0.09814344  0.90351732  0.97116176     0.84050
O2256       O  0.06282844  0.97815987  0.89443311    -0.68060
O2257       O  0.10087420  0.95947769  0.57130612    -0.87350
C2258       C  0.08146242  0.97138838  0.89742972     0.84880
C2259       C  0.03160441  0.93690208  0.90751341     1.06450
H2260       H  0.10364268  0.95455412  0.97988896     0.38250
O2261       O  0.09067827  0.95039466  0.99280651    -1.10000
O2262       O  0.06015108  0.96321815  0.54700750    -0.66660
Ni2263     Ni  0.07584525  0.97562917  0.50268888     1.26350
O2264       O  0.08651589  0.95562308  0.91934030    -0.66880
O2265       O  0.09817972  0.98726939  0.53089533    -0.79180
C2266       C  0.05056483  0.00876021  0.98462976     0.84270
O2267       O  0.06140793  0.00169669  0.51187386    -0.66350
Ni2268     Ni  0.09863367  0.93404502  0.53718842     1.27450
Ni2269     Ni  0.07034733  0.93895189  0.95708543     1.26060
H2270       H  0.04268730  0.95711257  0.98644303     0.38810
O2271       O  0.04646290  0.01170907  0.73322428    -0.81140
O2272       O  0.07609712  0.09513003  0.79284543    -0.65830
O2273       O  0.04075177  0.05134983  0.75166324    -1.12440
C2274       C  0.09049316  0.05165690  0.65424302     1.05740
O2275       O  0.07944418  0.11251569  0.73638563    -0.79040
O2276       O  0.06308190  0.09686745  0.66626560    -0.66620
Ni2277     Ni  0.03480892  0.02479063  0.77646256     1.34870
C2278       C  0.04420038  0.08879489  0.66616828     0.84480
O2279       O  0.03845189  0.07356540  0.81804342    -0.79580
O2280       O  0.02356846  0.03946745  0.81932437    -0.89860
C2281       C  0.08349386  0.11103845  0.77239665     0.84050
O2282       O  0.06063887  0.02012789  0.80019416    -0.68060
O2283       O  0.09951953  0.06899169  0.66610843    -0.87350
C2284       C  0.07633355  0.03189592  0.80832225     0.84880
C2285       C  0.02500399  0.05900372  0.83112194     1.06450
H2286       H  0.08728430  0.05922506  0.73772937     0.38250
O2287       O  0.07550832  0.06807173  0.73008614    -1.10000
O2288       O  0.03924492  0.07192382  0.68547747    -0.66660
Ni2289     Ni  0.05623400  0.04929296  0.70509764     1.26350
O2290       O  0.07677768  0.05240808  0.80273474    -0.66880
O2291       O  0.07104917  0.04822294  0.65881999    -0.79180
C2292       C  0.03328207  0.01411589  0.70682631     0.84270
O2293       O  0.03680477  0.02935521  0.68321321    -0.66350
Ni2294     Ni  0.08775576  0.09088048  0.69975997     1.27450
Ni2295     Ni  0.05816885  0.07215122  0.77465818     1.26060
H2296       H  0.02729309  0.05796591  0.74654174     0.38810
O2297       O  0.63746355  0.14676727  0.85389142    -0.81140
O2298       O  0.70917253  0.21712023  0.84135417    -0.65830
O2299       O  0.67560538  0.16763397  0.85936132    -1.12440
C2300       C  0.64055174  0.21771251  0.93926986     1.05740
O2301       O  0.70897593  0.22792160  0.90080507    -0.79040
O2302       O  0.68437086  0.21164509  0.95421306    -0.66620
Ni2303     Ni  0.66086360  0.15410377  0.81944775     1.34870
C2304       C  0.69154970  0.19241934  0.95426008     0.84480
O2305       O  0.70956267  0.17639780  0.81404567    -0.79580
O2306       O  0.68425018  0.15851419  0.78256751    -0.89860
C2307       C  0.71868257  0.22083752  0.87246465     0.84050
O2308       O  0.64705253  0.18029574  0.80295553    -0.68060
O2309       O  0.65042310  0.23181828  0.91893559    -0.87350
C2310       C  0.65589093  0.19851257  0.79462965     0.84880
C2311       C  0.70362390  0.16477010  0.78645636     1.06450
H2312       H  0.66136121  0.21290441  0.86152192     0.38250
O2313       O  0.67232697  0.20696445  0.87719951    -1.10000
O2314       O  0.68373910  0.17809398  0.93216765    -0.66660
Ni2315     Ni  0.65974431  0.18186776  0.89770718     1.26350
O2316       O  0.67521304  0.20250570  0.80276291    -0.66880
O2317       O  0.64382369  0.19721746  0.93658173    -0.79180
C2318       C  0.63620724  0.14417045  0.89035524     0.84270
O2319       O  0.64730697  0.15524955  0.91345509    -0.66350
Ni2320     Ni  0.67969497  0.22984341  0.90931953     1.27450
Ni2321     Ni  0.69170103  0.19235286  0.84622006     1.26060
H2322       H  0.68470276  0.15700805  0.87124772     0.38810
O2323       O  0.83280890  0.14489933  0.59830392    -0.81140
O2324       O  0.77426576  0.21915189  0.63989467    -0.65830
O2325       O  0.79691510  0.16908138  0.59868789    -1.12440
C2326       C  0.82416611  0.21796726  0.50909801     1.05740
O2327       O  0.78827891  0.24626851  0.60504928    -0.79040
O2328       O  0.77105614  0.21470770  0.55470800    -0.66620
Ni2329     Ni  0.81058199  0.15087480  0.63495649     1.34870
C2330       C  0.77042290  0.19676410  0.53668065     0.84480
O2331       O  0.76526161  0.17766860  0.64717416    -0.79580
O2332       O  0.78782026  0.15424822  0.67384157    -0.89860
C2333       C  0.77898072  0.23906529  0.63488726     0.84050
O2334       O  0.82886307  0.17357281  0.65491951    -0.68060
O2335       O  0.80486407  0.22147708  0.51242297    -0.87350
C2336       C  0.82214130  0.19114873  0.66788602     0.84880
C2337       C  0.76947796  0.16316630  0.67214706     1.06450
H2338       H  0.81833474  0.21448178  0.60367273     0.38250
O2339       O  0.80651093  0.20941363  0.58901029    -1.10000
O2340       O  0.78737753  0.18558414  0.53096607    -0.66660
Ni2341     Ni  0.81396966  0.18454065  0.56222668     1.26350
O2342       O  0.80313729  0.19629020  0.66334633    -0.66880
O2343       O  0.83171723  0.20156281  0.52652521    -0.79180
C2344       C  0.83508013  0.14641509  0.56185071     0.84270
O2345       O  0.82321578  0.15827940  0.54076514    -0.66350
Ni2346     Ni  0.79594960  0.23250959  0.55917985     1.27450
Ni2347     Ni  0.78549253  0.19415962  0.61913115     1.26060
H2348       H  0.78595943  0.16065547  0.58638800     0.38810
O2349       O  0.69835875  0.23380957  0.62119129    -0.81140
O2350       O  0.64581638  0.31734264  0.65332299    -0.65830
O2351       O  0.67089516  0.26592218  0.62196022    -1.12440
C2352       C  0.70352959  0.30774133  0.52635590     1.05740
O2353       O  0.64027524  0.33094242  0.59429312    -0.79040
O2354       O  0.64579087  0.29479579  0.54918420    -0.66620
Ni2355     Ni  0.68097882  0.24556234  0.65924881     1.34870
C2356       C  0.65390103  0.27669355  0.54123925     0.84480
O2357       O  0.63927953  0.27526061  0.67357574    -0.79580
O2358       O  0.66408848  0.25496858  0.69940796    -0.89860
C2359       C  0.63727762  0.33089876  0.63056091     0.84050
O2360       O  0.70075164  0.26697923  0.67455893    -0.68060
O2361       O  0.68430724  0.31372163  0.52211418    -0.87350
C2362       C  0.69702854  0.28568864  0.68691250     0.84880
C2363       C  0.64524352  0.26090929  0.69767373     1.06450
H2364       H  0.68548490  0.31649420  0.61496739     0.38250
O2365       O  0.67611928  0.30630025  0.60258227    -1.10000
O2366       O  0.67341561  0.27332159  0.54676334    -0.66660
Ni2367     Ni  0.69107067  0.28161876  0.58896501     1.26350
O2368       O  0.67997634  0.29596713  0.67899504    -0.66880
O2369       O  0.70942358  0.29830575  0.55674827    -0.79180
C2370       C  0.71242462  0.24592161  0.60653085     0.84270
O2371       O  0.70727870  0.25706005  0.57774457    -0.66350
Ni2372     Ni  0.66233543  0.32051401  0.56045283     1.27450
Ni2373     Ni  0.65824154  0.29130183  0.63918346     1.26060
H2374       H  0.66013011  0.25840874  0.60788863     0.38810
O2375       O  0.79006493  0.22543480  0.82376226    -0.81140
O2376       O  0.82165732  0.32120714  0.78299858    -0.65830
O2377       O  0.80923796  0.26434115  0.81912845    -1.12440
C2378       C  0.77095604  0.30172793  0.91387504     1.05740
O2379       O  0.83255126  0.32984733  0.84123996    -0.79040
O2380       O  0.82760837  0.30281743  0.90414554    -0.66620
Ni2381     Ni  0.79699699  0.24524363  0.78329149     1.34870
C2382       C  0.82598784  0.28238718  0.90935489     0.84480
O2383       O  0.83292916  0.28069019  0.75927681    -0.79580
O2384       O  0.80564107  0.26246210  0.74074063    -0.89860
C2385       C  0.83286916  0.33282284  0.80491991     0.84050
O2386       O  0.77203440  0.26229276  0.78626471    -0.68060
O2387       O  0.78569789  0.31629760  0.91061176    -0.87350
C2388       C  0.77164297  0.28164489  0.77185392     0.84880
C2389       C  0.82516708  0.26561714  0.73917999     1.06450
H2390       H  0.78508347  0.30885846  0.82960345     0.38250
O2391       O  0.79762008  0.30205773  0.83956983    -1.10000
O2392       O  0.81193783  0.27106591  0.89352173    -0.66660
Ni2393     Ni  0.79009316  0.27382565  0.85727422     1.26350
O2394       O  0.78862819  0.29349787  0.76841295    -0.66880
O2395       O  0.77073920  0.28438474  0.89456380    -0.79180
C2396       C  0.78653986  0.22712383  0.85916782     0.84270
O2397       O  0.78410803  0.24528733  0.87478312    -0.66350
Ni2398     Ni  0.80924166  0.32188423  0.87520621     1.27450
Ni2399     Ni  0.81494726  0.29249508  0.79901908     1.26060
H2400       H  0.82190643  0.25820786  0.82992922     0.38810
O2401       O  0.40513618  0.40418948  0.98321282    -0.81140
O2402       O  0.44865535  0.49415009  0.51465442    -0.65830
O2403       O  0.41829558  0.44572433  0.97956819    -1.12440
C2404       C  0.48418108  0.43464175  0.91318758     1.05740
O2405       O  0.45295388  0.49862070  0.95416533    -0.79040
O2406       O  0.45825248  0.47511024  0.89195840    -0.66620
Ni2407     Ni  0.40825647  0.42717893  0.52039021     1.34870
C2408       C  0.44014952  0.46809788  0.88360446     0.84480
O2409       O  0.41085610  0.47888673  0.52686724    -0.79580
O2410       O  0.40941204  0.44922456  0.56203827    -0.89860
C2411       C  0.45838309  0.50334087  0.98754085     0.84050
O2412       O  0.43627560  0.41841127  0.53202341    -0.68060
O2413       O  0.48964371  0.45379309  0.92370489    -0.87350
C2414       C  0.45031159  0.43167211  0.54359449     0.84880
C2415       C  0.40863375  0.47006596  0.55907313     1.06450
H2416       H  0.46673316  0.45131381  0.98450895     0.38250
O2417       O  0.45628982  0.45804697  0.96856167    -1.10000
O2418       O  0.43005513  0.45401083  0.90442996    -0.66660
Ni2419     Ni  0.44075392  0.43572867  0.94705381     1.26350
O2420       O  0.44776143  0.45237362  0.54030433    -0.66880
O2421       O  0.46515008  0.42668217  0.91684360    -0.79180
C2422       C  0.41049891  0.40042870  0.94856439     0.84270
O2423       O  0.42378418  0.41217810  0.92941196    -0.66350
Ni2424     Ni  0.47216832  0.47717048  0.93849238     1.27450
Ni2425     Ni  0.43376648  0.46919501  0.49842233     1.26060
H2426       H  0.40653779  0.45088916  0.96452239     0.38810
O2427       O  0.41690537  0.60824353  0.72812127    -0.81140
O2428       O  0.48837237  0.55235322  0.68620706    -0.65830
O2429       O  0.43690973  0.56903101  0.72962129    -1.12440
C2430       C  0.47766675  0.58633530  0.83430055     1.05740
O2431       O  0.50884044  0.55724615  0.73448543    -0.79040
O2432       O  0.47267563  0.53692275  0.77675068    -0.66620
Ni2433     Ni  0.41631869  0.58193055  0.69780555     1.34870
C2434       C  0.45428531  0.53794828  0.79254069     0.84480
O2435       O  0.44752994  0.54402266  0.66808348    -0.79580
O2436       O  0.41381713  0.55501055  0.67017460    -0.89860
C2437       C  0.50184629  0.54502192  0.70936583     0.84050
O2438       O  0.43397379  0.59296871  0.65514549    -0.68060
O2439       O  0.48013438  0.56675093  0.82681714    -0.87350
C2440       C  0.45401423  0.59252173  0.65171302     0.84880
C2441       C  0.42785161  0.54166530  0.65949344     1.06450
H2442       H  0.48249576  0.58944772  0.73974571     0.38250
O2443       O  0.47516676  0.57642545  0.74881469    -1.10000
O2444       O  0.44571822  0.55637632  0.79877633    -0.66660
Ni2445     Ni  0.44983784  0.58418466  0.77100620     1.26350
O2446       O  0.46533560  0.58655761  0.67904535    -0.66880
O2447       O  0.46501828  0.59777335  0.81381193    -0.79180
C2448       C  0.41389208  0.60797371  0.76463616     0.84270
O2449       O  0.42348418  0.59458898  0.78687033    -0.66350
Ni2450     Ni  0.49344366  0.56055770  0.78043937     1.27450
Ni2451     Ni  0.46213398  0.56047280  0.70761782     1.26060
H2452       H  0.42983943  0.55599915  0.73916643     0.38810
O2453       O  0.49029692  0.44448947  0.72433763    -0.81140
O2454       O  0.57759026  0.41130176  0.67529299    -0.65830
O2455       O  0.52472197  0.42712754  0.71085923    -1.12440
C2456       C  0.56943802  0.46202351  0.80385147     1.05740
O2457       O  0.58292130  0.39691985  0.73390041    -0.79040
O2458       O  0.56520008  0.41136261  0.80671742    -0.66620
Ni2459     Ni  0.50662667  0.44295833  0.67892408     1.34870
C2460       C  0.54510210  0.41046509  0.80867957     0.84480
O2461       O  0.53645788  0.40697849  0.64593018    -0.79580
O2462       O  0.52099034  0.43777919  0.63314450    -0.89860
C2463       C  0.58633700  0.39733372  0.69749156     0.84050
O2464       O  0.52676806  0.46720102  0.68462684    -0.68060
O2465       O  0.58432476  0.44994678  0.79224258    -0.87350
C2466       C  0.54545050  0.46682719  0.66965034     0.84880
C2467       C  0.52352802  0.41821621  0.62564385     1.06450
H2468       H  0.56891691  0.44911722  0.72393951     0.38250
O2469       O  0.56230720  0.43561997  0.73244154    -1.10000
O2470       O  0.53426739  0.41543718  0.78011710    -0.66660
Ni2471     Ni  0.53645405  0.44244748  0.75390944     1.26350
O2472       O  0.55448165  0.44869577  0.66320164    -0.66880
O2473       O  0.54990046  0.45821324  0.79556061    -0.79180
C2474       C  0.49629663  0.45636966  0.75069273     0.84270
O2475       O  0.50947178  0.44894317  0.77442119    -0.66350
Ni2476     Ni  0.58286997  0.42304898  0.76450275     1.27450
Ni2477     Ni  0.55064445  0.42058743  0.68984599     1.26060
H2478       H  0.51762334  0.41372175  0.71865995     0.38810
O2479       O  0.54821304  0.50405938  0.50898179    -0.81140
O2480       O  0.57456942  0.59243203  0.53096180    -0.65830
O2481       O  0.54392847  0.54456378  0.49433573    -1.12440
C2482       C  0.59087405  0.53402017  0.90262037     1.05740
O2483       O  0.59408591  0.59960837  0.97783321    -0.79040
O2484       O  0.56336505  0.58505394  0.93024476    -0.66620
Ni2485     Ni  0.52857972  0.52511446  0.52464292     1.34870
C2486       C  0.54936639  0.57163851  0.91923799     0.84480
O2487       O  0.53385748  0.57641353  0.54432954    -0.79580
O2488       O  0.51052786  0.54807574  0.53959941    -0.89860
C2489       C  0.58780481  0.60410621  0.51151897     0.84050
O2490       O  0.54282972  0.52763501  0.57056886    -0.68060
O2491       O  0.59004314  0.55478055  0.89983224    -0.87350
C2492       C  0.56025269  0.53611529  0.57951263     0.84880
C2493       C  0.51521312  0.56766177  0.54888414     1.06450
H2494       H  0.59333744  0.55339839  0.99811452     0.38250
O2495       O  0.58153782  0.55815500  0.98275817    -1.10000
O2496       O  0.55195536  0.55094598  0.92302471    -0.66660
Ni2497     Ni  0.56673613  0.53417172  0.96425473     1.26350
O2498       O  0.56971722  0.55073929  0.55873725    -0.66880
O2499       O  0.58981189  0.52527251  0.93505773    -0.79180
C2500       C  0.54305329  0.49915281  0.97557598     0.84270
O2501       O  0.55261512  0.50863523  0.94856229    -0.66350
Ni2502     Ni  0.59137170  0.57659283  0.94140082     1.27450
Ni2503     Ni  0.55861830  0.56779765  0.51477039     1.26060
H2504       H  0.53315336  0.55079340  0.97841064     0.38810
O2505       O  0.65829999  0.84717388  0.85294406    -0.81140
O2506       O  0.75026448  0.80986155  0.87075520    -0.65830
O2507       O  0.70000746  0.83852379  0.84374384    -1.12440
C2508       C  0.69086924  0.77836935  0.75912367     1.05740
O2509       O  0.75489228  0.80515609  0.81154857    -0.79040
O2510       O  0.73080686  0.81317096  0.75128305    -0.66620
Ni2511     Ni  0.68327846  0.84665348  0.88594987     1.34870
C2512       C  0.72230069  0.83150644  0.75348845     0.84480
O2513       O  0.73464420  0.84736908  0.88504956    -0.79580
O2514       O  0.70718228  0.84899961  0.92286530    -0.89860
C2515       C  0.75725797  0.79819826  0.84527002     0.84050
O2516       O  0.67800661  0.81702898  0.90111724    -0.68060
O2517       O  0.71034680  0.77483540  0.76428922    -0.87350
C2518       C  0.69250825  0.80382034  0.91002953     0.84880
C2519       C  0.72710931  0.85145616  0.91686557     1.06450
H2520       H  0.70895906  0.78915626  0.84017394     0.38250
O2521       O  0.71389348  0.80141857  0.82496012    -1.10000
O2522       O  0.70539809  0.83462230  0.77155057    -0.66660
Ni2523     Ni  0.68999359  0.81704367  0.80854002     1.26350
O2524       O  0.71186144  0.80752950  0.90048700    -0.66880
O2525       O  0.68115797  0.79481756  0.77216902    -0.79180
C2526       C  0.65419992  0.84426707  0.81745149     0.84270
O2527       O  0.66595341  0.83349392  0.79565653    -0.66350
Ni2528     Ni  0.73251730  0.79021673  0.78782481     1.27450
Ni2529     Ni  0.72476286  0.82401621  0.85713215     1.26060
H2530       H  0.70393768  0.85191147  0.83044568     0.38810
O2531       O  0.85562573  0.83632979  0.60500783    -0.81140
O2532       O  0.76047917  0.80621330  0.58333049    -0.65830
O2533       O  0.81275227  0.83186343  0.61159713    -1.12440
C2534       C  0.81211427  0.77341243  0.70654005     1.05740
O2535       O  0.75408311  0.80422958  0.64265585    -0.79040
O2536       O  0.77696825  0.81047540  0.70439126    -0.66620
Ni2537     Ni  0.83145614  0.83847245  0.57038630     1.34870
C2538       C  0.78714389  0.82822068  0.70031439     0.84480
O2539       O  0.77991979  0.84258937  0.56656582    -0.79580
O2540       O  0.80880558  0.84340707  0.53170364    -0.89860
C2541       C  0.75150157  0.79630217  0.61038367     0.84050
O2542       O  0.83352421  0.80865853  0.55724896    -0.68060
O2543       O  0.79283247  0.77062727  0.69783771    -0.87350
C2544       C  0.81778300  0.79675949  0.54828089     0.84880
C2545       C  0.78905492  0.84721803  0.53582936     1.06450
H2546       H  0.79856433  0.78338986  0.62027601     0.38250
O2547       O  0.79454314  0.79619363  0.63356866    -1.10000
O2548       O  0.80466580  0.82997663  0.68318269    -0.66660
Ni2549     Ni  0.81937655  0.81047734  0.65086055     1.26350
O2550       O  0.79882131  0.80168614  0.55684238    -0.66880
O2551       O  0.82420447  0.78864336  0.69214284    -0.79180
C2552       C  0.85848821  0.83426035  0.64125330     0.84270
O2553       O  0.84481525  0.82547402  0.66379381    -0.66350
Ni2554     Ni  0.77351968  0.78745750  0.67013928     1.27450
Ni2555     Ni  0.78687341  0.81898903  0.59767060     1.26060
H2556       H  0.80981422  0.84569395  0.62264425     0.38810
O2557       O  0.74528498  0.69682330  0.57085183    -0.81140
O2558       O  0.65518593  0.67747150  0.55172631    -0.65830
O2559       O  0.70545075  0.70610888  0.58291326    -1.12440
C2560       C  0.70987689  0.65287349  0.67772308     1.05740
O2561       O  0.64384813  0.66914845  0.61111591    -0.79040
O2562       O  0.66737965  0.69366141  0.65953936    -0.66620
Ni2563     Ni  0.72613110  0.71528309  0.54606706     1.34870
C2564       C  0.68358709  0.70474490  0.66857500     0.84480
O2565       O  0.67593959  0.71479420  0.52429999    -0.79580
O2566       O  0.70687218  0.73380896  0.52145631    -0.89860
C2567       C  0.64167950  0.66889457  0.57478746     0.84050
O2568       O  0.72111144  0.69381346  0.50908999    -0.68060
O2569       O  0.69024967  0.65708136  0.68201262    -0.87350
C2570       C  0.71202247  0.67553731  0.51404742     0.84880
C2571       C  0.68772748  0.73084885  0.51180948     1.06450
H2572       H  0.68908489  0.65671273  0.59227409     0.38250
O2573       O  0.68666935  0.67055963  0.60369142    -1.10000
O2574       O  0.70227595  0.69926699  0.65950337    -0.66660
Ni2575     Ni  0.71302716  0.68239847  0.61731316     1.26350
O2576       O  0.69511576  0.67303718  0.53271631    -0.66880
O2577       O  0.71946328  0.65821322  0.64764392    -0.79180
C2578       C  0.74901775  0.70390585  0.60345435     0.84270
O2579       O  0.74006485  0.69404067  0.63065352    -0.66350
Ni2580     Ni  0.66780863  0.66421274  0.64458217     1.27450
Ni2581     Ni  0.68045150  0.69242597  0.56511445     1.26060
H2582       H  0.70162253  0.71868811  0.59708034     0.38810
O2583       O  0.74466455  0.70031037  0.90504394    -0.81140
O2584       O  0.83262054  0.66813137  0.91467521    -0.65830
O2585       O  0.78548479  0.70255293  0.88923442    -1.12440
C2586       C  0.76880402  0.65154225  0.79847000     1.05740
O2587       O  0.83873598  0.65615135  0.85568085    -0.79040
O2588       O  0.81870684  0.68517838  0.80923599    -0.66620
Ni2589     Ni  0.76796358  0.71400357  0.92805316     1.34870
C2590       C  0.80474676  0.69922551  0.80237155     0.84480
O2591       O  0.81947659  0.70756331  0.94050814    -0.79580
O2592       O  0.79100355  0.72813474  0.95132069    -0.89860
C2593       C  0.84329576  0.65735838  0.89112826     0.84050
O2594       O  0.76923207  0.69038376  0.96338290    -0.68060
O2595       O  0.78860082  0.65326072  0.79136705    -0.87350
C2596       C  0.77745263  0.67193639  0.96053531     0.84880
C2597       C  0.81042516  0.72397986  0.95533001     1.06450
H2598       H  0.79327583  0.65170833  0.88234666     0.38250
O2599       O  0.79750429  0.66496300  0.86892461    -1.10000
O2600       O  0.78554099  0.69646121  0.81336193    -0.66660
Ni2601     Ni  0.77303371  0.68047595  0.85727456     1.26350
O2602       O  0.79398942  0.66861866  0.94158715    -0.66880
O2603       O  0.76150182  0.65781021  0.82931532    -0.79180
C2604       C  0.74203936  0.70759090  0.87163089     0.84270
O2605       O  0.74788643  0.69569982  0.84556743    -0.66350
Ni2606     Ni  0.81312211  0.65605348  0.82580891     1.27450
Ni2607     Ni  0.80910923  0.68587457  0.90390280     1.26060
H2608       H  0.79053357  0.71477221  0.87385274     0.38810
O2609       O  0.94060355  0.49251545  0.75086696    -0.81140
O2610       O  0.89982997  0.40914411  0.76071391    -0.65830
O2611       O  0.94112026  0.45131517  0.73798337    -1.12440
C2612       C  0.90467474  0.47013517  0.63005978     1.05740
O2613       O  0.88896839  0.40227243  0.70097609    -0.79040
O2614       O  0.92551361  0.41546690  0.66296540    -0.66620
Ni2615     Ni  0.95295067  0.46848792  0.77624075     1.34870
C2616       C  0.94185284  0.42744036  0.65764241     0.84480
O2617       O  0.93849592  0.41819689  0.79206152    -0.79580
O2618       O  0.96470342  0.44337618  0.79937270    -0.89860
C2619       C  0.88894718  0.39828741  0.73711862     0.84050
O2620       O  0.93108862  0.46777750  0.81235900    -0.68060
O2621       O  0.90358177  0.44939910  0.62712611    -0.87350
C2622       C  0.91179566  0.46337906  0.80776444     0.84880
C2623       C  0.95686158  0.42426758  0.80455026     1.06450
H2624       H  0.89216444  0.44995330  0.71856198     0.38250
O2625       O  0.90486838  0.44342958  0.70934301    -1.10000
O2626       O  0.94157177  0.44808608  0.66272667    -0.66660
Ni2627     Ni  0.92517940  0.46540724  0.69871477     1.26350
O2628       O  0.90521062  0.44943172  0.78421342    -0.66880
O2629       O  0.90826918  0.47864800  0.66156393    -0.79180
C2630       C  0.95220044  0.49544542  0.72209880     0.84270
O2631       O  0.94541575  0.48841842  0.69090796    -0.66350
Ni2632     Ni  0.89751588  0.42628787  0.66652955     1.27450
Ni2633     Ni  0.92074039  0.43048444  0.75096980     1.26060
H2634       H  0.95272371  0.44390899  0.72711849     0.38810
O2635       O  0.90678071  0.59590914  0.98564487    -0.81140
O2636       O  0.98742933  0.53869931  0.50553004    -0.65830
O2637       O  0.94643178  0.58022736  0.98125818    -1.12440
C2638       C  0.92090581  0.52420447  0.89902810     1.05740
O2639       O  0.98912634  0.53465249  0.94483114    -0.79040
O2640       O  0.96379189  0.54265903  0.88329094    -0.66620
Ni2641     Ni  0.92890189  0.58866080  0.52184274     1.34870
C2642       C  0.96731469  0.56268483  0.88567443     0.84480
O2643       O  0.97951697  0.57774788  0.53009404    -0.79580
O2644       O  0.95010246  0.58373331  0.56200818    -0.89860
C2645       C  0.99108220  0.52665745  0.97808437     0.84050
O2646       O  0.91770880  0.55968954  0.52933998    -0.68060
O2647       O  0.93672643  0.51310686  0.90987567    -0.87350
C2648       C  0.92898596  0.54356626  0.53911356     0.84880
C2649       C  0.97015554  0.58143556  0.56097272     1.06450
H2650       H  0.94062629  0.53123691  0.97447551     0.38250
O2651       O  0.94997743  0.54114144  0.96078236    -1.10000
O2652       O  0.95654390  0.57407040  0.90819908    -0.66660
Ni2653     Ni  0.93344205  0.56354967  0.94166884     1.26350
O2654       O  0.94909371  0.54425858  0.53499765    -0.66880
O2655       O  0.91970966  0.54495516  0.90332138    -0.79180
C2656       C  0.90566786  0.59811012  0.94921969     0.84270
O2657       O  0.91686497  0.58736372  0.92644371    -0.66350
Ni2658     Ni  0.96336674  0.52344788  0.92603592     1.27450
Ni2659     Ni  0.96608399  0.55918295  0.49522870     1.26060
H2660       H  0.95368006  0.59293379  0.97068730     0.38810
O2661       O  0.99191673  0.43553436  0.52991903    -0.81140
O2662       O  0.07021228  0.39412807  0.54513546    -0.65830
O2663       O  0.03180403  0.43536039  0.50938034    -1.12440
C2664       C  0.01374050  0.39132543  0.91383707     1.05740
O2665       O  0.07983038  0.38472971  0.98601058    -0.79040
O2666       O  0.06499932  0.41905093  0.94135808    -0.66620
Ni2667     Ni  0.01668285  0.45173676  0.54324987     1.34870
C2668       C  0.05232418  0.43403837  0.93159821     0.84480
O2669       O  0.06268056  0.43648529  0.56480091    -0.79580
O2670       O  0.04248119  0.46617519  0.55535219    -0.89860
C2671       C  0.08227716  0.38427554  0.52245347     0.84050
O2672       O  0.02057715  0.43448865  0.58779473    -0.68060
O2673       O  0.03399080  0.39124094  0.91119574    -0.87350
C2674       C  0.01833729  0.41424527  0.58754380     0.84880
C2675       C  0.05947746  0.45712391  0.56696323     1.06450
H2676       H  0.03316542  0.38336098  0.00328522     0.38250
O2677       O  0.03903699  0.39647539  0.99153002    -1.10000
O2678       O  0.03232704  0.43102861  0.93555839    -0.66660
Ni2679     Ni  0.01741487  0.41526623  0.97750869     1.26350
O2680       O  0.02930597  0.40319418  0.56480861    -0.66880
O2681       O  0.00496416  0.39469765  0.94530592    -0.79180
C2682       C  0.98495551  0.44048419  0.99711238     0.84270
O2683       O  0.99430334  0.43327086  0.96837978    -0.66350
Ni2684     Ni  0.05653288  0.38919093  0.95037118     1.27450
Ni2685     Ni  0.05074944  0.41538425  0.52908042     1.26060
H2686       H  0.03982331  0.44604704  0.49476095     0.38810
O2687       O  0.09675344  0.57411714  0.76612770    -0.81140
O2688       O  0.04281164  0.48737631  0.79582701    -0.65830
O2689       O  0.08015450  0.53314893  0.76471393    -1.12440
C2690       C  0.02393849  0.54619264  0.67503978     1.05740
O2691       O  0.04527996  0.48087413  0.73645532    -0.79040
O2692       O  0.05290762  0.50230550  0.67226131    -0.66620
Ni2693     Ni  0.08874140  0.55167451  0.80497892     1.34870
C2694       C  0.07065842  0.51169590  0.66928110     0.84480
O2695       O  0.08105382  0.49998275  0.81653003    -0.79580
O2696       O  0.08294991  0.53020181  0.84811258    -0.89860
C2697       C  0.03504741  0.47860403  0.76693970     0.84050
O2698       O  0.06064937  0.56219921  0.80882107    -0.68060
O2699       O  0.01805397  0.52639332  0.68127250    -0.87350
C2700       C  0.04513013  0.54982872  0.81842815     0.84880
C2701       C  0.08214779  0.50931039  0.84766282     1.06450
H2702       H  0.03101819  0.52911147  0.75493527     0.38250
O2703       O  0.04292873  0.52241118  0.74322706    -1.10000
O2704       O  0.07622880  0.52775534  0.68913912    -0.66660
Ni2705     Ni  0.06121997  0.54454907  0.72609259     1.26350
O2706       O  0.04609424  0.52901787  0.81673032    -0.66880
O2707       O  0.04106246  0.55469341  0.68824972    -0.79180
C2708       C  0.09322059  0.57787484  0.73028545     0.84270
O2709       O  0.07968851  0.56729081  0.71137769    -0.66350
Ni2710     Ni  0.03128740  0.50296169  0.70833732     1.27450
Ni2711     Ni  0.06154487  0.51071538  0.78106363     1.26060
H2712       H  0.09251678  0.52700683  0.75341482     0.38810
O2713       O  0.22883978  0.78884619  0.58030906    -0.81140
O2714       O  0.32249876  0.80668445  0.58451400    -0.65830
O2715       O  0.26841025  0.78101025  0.59932770    -1.12440
C2716       C  0.25682815  0.82611909  0.69864988     1.05740
O2717       O  0.32665259  0.82460061  0.63924771    -0.79040
O2718       O  0.30371333  0.79181481  0.68016154    -0.66620
Ni2719     Ni  0.25086860  0.77392417  0.55669859     1.34870
C2720       C  0.28743998  0.78019010  0.68859142     0.84480
O2721       O  0.30375362  0.76962428  0.55656496    -0.79580
O2722       O  0.27257504  0.75815546  0.53241326    -0.89860
C2723       C  0.33277484  0.81960940  0.60576267     0.84050
O2724       O  0.25635543  0.79940849  0.52806477    -0.68060
O2725       O  0.27642447  0.82272028  0.70511617    -0.87350
C2726       C  0.27045835  0.81413542  0.52907296     0.84880
C2727       C  0.29247310  0.75651047  0.53621974     1.06450
H2728       H  0.28380997  0.82960819  0.60997890     0.38250
O2729       O  0.28556801  0.81604672  0.62394670    -1.10000
O2730       O  0.26895854  0.78490039  0.67563143    -0.66660
Ni2731     Ni  0.25874090  0.80340075  0.63296637     1.26350
O2732       O  0.28720943  0.81267026  0.54873955    -0.66880
O2733       O  0.25018670  0.82597704  0.66486120    -0.79180
C2734       C  0.22504329  0.78028054  0.61251195     0.84270
O2735       O  0.23107348  0.79096780  0.64056528    -0.66350
Ni2736     Ni  0.30091216  0.82223898  0.66959148     1.27450
Ni2737     Ni  0.29542343  0.79344585  0.59040778     1.26060
H2738       H  0.27052654  0.76764002  0.61365791     0.38810
O2739       O  0.14583213  0.83129503  0.87324749    -0.81140
O2740       O  0.19762444  0.74814458  0.84314900    -0.65830
O2741       O  0.15814448  0.78908094  0.87403130    -1.12440
C2742       C  0.21893093  0.81583226  0.93828887     1.05740
O2743       O  0.20411793  0.74556076  0.90466888    -0.79040
O2744       O  0.20356582  0.77394402  0.96178023    -0.66620
Ni2745     Ni  0.14728920  0.80822052  0.83619523     1.34870
C2746       C  0.18541153  0.76572500  0.96474208     0.84480
O2747       O  0.15732224  0.75554000  0.82597770    -0.79580
O2748       O  0.14643387  0.78598029  0.79673593    -0.89860
C2749       C  0.20456670  0.73774657  0.87189001     0.84050
O2750       O  0.17462136  0.81881700  0.81821572    -0.68060
O2751       O  0.22872245  0.80037966  0.92277203    -0.87350
C2752       C  0.18883556  0.80679773  0.80471910     0.84880
C2753       C  0.14911343  0.76533242  0.79758969     1.06450
H2754       H  0.20489115  0.79653720  0.86867848     0.38250
O2755       O  0.19724916  0.78619636  0.88465355    -1.10000
O2756       O  0.17079787  0.77567711  0.94613012    -0.66660
Ni2757     Ni  0.17701871  0.80152826  0.91044966     1.26350
O2758       O  0.18850788  0.78633887  0.81129260    -0.66880
O2759       O  0.19858342  0.81560141  0.94285987    -0.79180
C2760       C  0.14531481  0.83191320  0.90993106     0.84270
O2761       O  0.15505561  0.81821738  0.93127886    -0.66350
Ni2762     Ni  0.21738016  0.77257058  0.91396446     1.27450
Ni2763     Ni  0.17793025  0.76966948  0.85553869     1.26060
H2764       H  0.14670257  0.78121390  0.88665040     0.38810
O2765       O  0.34973530  0.65343809  0.87978938    -0.81140
O2766       O  0.25313405  0.65345851  0.91608747    -0.65830
O2767       O  0.30802976  0.64611741  0.87898939    -1.12440
C2768       C  0.29072440  0.70973751  0.80284865     1.05740
O2769       O  0.24596090  0.65704923  0.85674340    -0.79040
O2770       O  0.26639557  0.66985693  0.79353338    -0.66620
Ni2771     Ni  0.32855912  0.64374226  0.91773176     1.34870
C2772       C  0.27623154  0.65236940  0.79204759     0.84480
O2773       O  0.28187764  0.62298849  0.92090974    -0.79580
O2774       O  0.30852275  0.63137327  0.95773538    -0.89860
C2775       C  0.24012955  0.65862342  0.89061400     0.84050
O2776       O  0.32413047  0.67310398  0.93387082    -0.68060
O2777       O  0.27336583  0.70856958  0.82131847    -0.87350
C2778       C  0.30675138  0.67867482  0.94860842     0.84880
C2779       C  0.29042233  0.62181026  0.95275929     1.06450
H2780       H  0.28542953  0.68927617  0.88506013     0.38250
O2781       O  0.28254891  0.67703418  0.86909677    -1.10000
O2782       O  0.29337758  0.64973694  0.81016427    -0.66660
Ni2783     Ni  0.30761373  0.67024697  0.84362751     1.26350
O2784       O  0.28985151  0.66730859  0.94292659    -0.66880
O2785       O  0.30518077  0.69511517  0.80645859    -0.79180
C2786       C  0.34974310  0.65500369  0.84293303     0.84270
O2787       O  0.33390492  0.66174358  0.82338760    -0.66350
Ni2788     Ni  0.25893034  0.68336176  0.83900011     1.27450
Ni2789     Ni  0.28116816  0.65026419  0.89779483     1.26060
H2790       H  0.30812504  0.63262212  0.86552035     0.38810
O2791       O  0.15263899  0.63576793  0.60859140    -0.81140
O2792       O  0.24378398  0.68135028  0.59477605    -0.65830
O2793       O  0.19500936  0.64696003  0.61788622    -1.12440
C2794       C  0.17807543  0.70748987  0.69441026     1.05740
O2795       O  0.24519568  0.68562906  0.65470675    -0.79040
O2796       O  0.21953678  0.67904109  0.71298241    -0.66620
Ni2797     Ni  0.17866325  0.63684906  0.57660164     1.34870
C2798       C  0.21525914  0.65912040  0.70943057     0.84480
O2799       O  0.23122901  0.64161969  0.58173610    -0.79580
O2800       O  0.20427121  0.63271597  0.54415008    -0.89860
C2801       C  0.24919024  0.69310379  0.62191158     0.84050
O2802       O  0.17356839  0.66646236  0.55667956    -0.68060
O2803       O  0.19696098  0.71447412  0.68958787    -0.87350
C2804       C  0.18830734  0.68010948  0.54740073     0.84880
C2805       C  0.22402001  0.63170201  0.55369044     1.06450
H2806       H  0.19941197  0.69722977  0.61719036     0.38250
O2807       O  0.20512902  0.68616337  0.63402118    -1.10000
O2808       O  0.20035864  0.65261156  0.68851538    -0.66660
Ni2809     Ni  0.18319227  0.66744043  0.65106889     1.26350
O2810       O  0.20729455  0.67689383  0.55869421    -0.66880
O2811       O  0.17168815  0.68847301  0.68522587    -0.79180
C2812       C  0.15023569  0.63649079  0.64520983     0.84270
O2813       O  0.16192498  0.64813602  0.66573279    -0.66350
Ni2814     Ni  0.22132983  0.70009441  0.67263599     1.27450
Ni2815     Ni  0.21890643  0.66421682  0.60577868     1.26060
H2816       H  0.19956237  0.63409341  0.63166231     0.38810
C2817       C  0.24078351  0.62094008  0.53149490    -0.05720
C2818       C  0.26188904  0.62192797  0.54551697    -0.33150
C2819       C  0.27921305  0.61909573  0.52157173     0.36100
C2820       C  0.27566718  0.61416863  0.98349488    -0.06080
C2821       C  0.25476703  0.60807859  0.97246462    -0.33050
C2822       C  0.23736877  0.61218151  0.99561540     0.36010
H2823       H  0.26523912  0.62697442  0.57428597     0.16380
O2824       O  0.29931317  0.62258537  0.53497532    -0.60540
H2825       H  0.25150511  0.60288817  0.94373364     0.16390
O2826       O  0.21734439  0.60957062  0.98137651    -0.60640
H2827       H  0.21298906  0.59454092  0.98897830     0.43390
H2828       H  0.30119113  0.63856668  0.53589133     0.43340
C2829       C  0.26583465  0.63520864  0.76999702    -0.05720
C2830       C  0.26788614  0.63771284  0.73048422    -0.33150
C2831       C  0.24985899  0.64115889  0.70818754     0.36100
C2832       C  0.23014004  0.64348523  0.72618782    -0.06080
C2833       C  0.22771864  0.63545946  0.76352526    -0.33050
C2834       C  0.24567416  0.62888729  0.78398621     0.36010
H2835       H  0.28330756  0.64067839  0.71791851     0.16380
O2836       O  0.25205732  0.64479029  0.66974947    -0.60540
H2837       H  0.21246689  0.63559010  0.77740139     0.16390
O2838       O  0.24349370  0.62086480  0.82053307    -0.60640
H2839       H  0.23918975  0.60542451  0.81787922     0.43390
H2840       H  0.24720017  0.63110623  0.65798708     0.43340
C2841       C  0.18388076  0.74306914  0.98441048    -0.05720
C2842       C  0.16523950  0.73312565  0.99963656    -0.33150
C2843       C  0.16563331  0.71230837  0.51918160     0.36100
C2844       C  0.18465095  0.70042784  0.52239661    -0.06080
C2845       C  0.20229825  0.70952891  0.50385432    -0.33050
C2846       C  0.20258156  0.73057828  0.98753904     0.36010
H2847       H  0.15055002  0.74178809  0.99781289     0.16380
O2848       O  0.14754883  0.70423183  0.53601292    -0.60540
H2849       H  0.21669310  0.70039264  0.50316146     0.16390
O2850       O  0.22184380  0.73930082  0.97655250    -0.60640
H2851       H  0.22893546  0.72825952  0.96135895     0.43390
H2852       H  0.14046928  0.69552604  0.51614725     0.43340
C2853       C  0.16345298  0.72239579  0.71266193    -0.05720
C2854       C  0.16576306  0.74479664  0.70483796    -0.33150
C2855       C  0.15751840  0.75990077  0.72963129     0.36100
C2856       C  0.14692169  0.75252601  0.76284732    -0.06080
C2857       C  0.14164736  0.73030054  0.76704123    -0.33050
C2858       C  0.14987006  0.71519044  0.74213954     0.36010
H2859       H  0.17560927  0.75060512  0.68135949     0.16380
O2860       O  0.16235988  0.78154460  0.72385740    -0.60540
H2861       H  0.13334894  0.72438220  0.79230817     0.16390
O2862       O  0.14646214  0.69343226  0.74945601    -0.60640
H2863       H  0.15774551  0.68910355  0.76758648     0.43390
H2864       H  0.17743006  0.78323401  0.73111445     0.43340
C2865       C  0.21381846  0.71688452  0.87007943    -0.05720
C2866       C  0.20077505  0.69859268  0.86517067    -0.33150
C2867       C  0.20767247  0.67830964  0.87789016     0.36100
C2868       C  0.22704742  0.67682827  0.89723654    -0.06080
C2869       C  0.23880286  0.69558426  0.90524035    -0.33050
C2870       C  0.23333302  0.71511676  0.88859790     0.36010
H2871       H  0.18524826  0.70014646  0.85249187     0.16380
O2872       O  0.19615401  0.65996574  0.86957193    -0.60540
H2873       H  0.25385133  0.69466562  0.91987830     0.16390
O2874       O  0.24625224  0.73300386  0.89355115    -0.60640
H2875       H  0.25232808  0.73647605  0.86805669     0.43390
H2876       H  0.18804823  0.65630834  0.89308454     0.43340
C2877       C  0.30140068  0.73682836  0.01773594    -0.05720
C2878       C  0.29415108  0.71625200  0.53114432    -0.33150
C2879       C  0.29602350  0.69744143  0.00932962     0.36100
C2880       C  0.30605987  0.69840846  0.97346365    -0.06080
C2881       C  0.31462459  0.71872984  0.96097580    -0.33050
C2882       C  0.31204922  0.73780682  0.98239074     0.36010
H2883       H  0.28579658  0.71494313  0.55803516     0.16380
O2884       O  0.28790435  0.67810638  0.02348985    -0.60540
H2885       H  0.32234051  0.72006698  0.93348374     0.16390
O2886       O  0.31862826  0.75747612  0.96714936    -0.60640
H2887       H  0.33285871  0.76009682  0.97810172     0.43390
H2888       H  0.27265852  0.67826560  0.51708398     0.43340
C2889       C  0.28934958  0.76222922  0.71768818    -0.05720
C2890       C  0.30779141  0.74978682  0.72162318    -0.33150
C2891       C  0.30919254  0.73287593  0.74964083     0.36100
C2892       C  0.29213052  0.72846877  0.77466375    -0.06080
C2893       C  0.27423262  0.74164668  0.77109741    -0.33050
C2894       C  0.27281316  0.75829006  0.74368264     0.36010
H2895       H  0.32098649  0.75293771  0.70258210     0.16380
O2896       O  0.32722516  0.72098256  0.75228920    -0.60540
H2897       H  0.26069358  0.73911046  0.78956973     0.16390
O2898       O  0.25503332  0.77074066  0.74248795    -0.60640
H2899       H  0.25168365  0.77433589  0.76915696     0.43390
H2900       H  0.32523761  0.70914452  0.73391350     0.43340
C2901       C  0.22687753  0.75660754  0.61606349    -0.05720
C2902       C  0.22820769  0.74467598  0.58258377    -0.33150
C2903       C  0.23919421  0.72530675  0.58243093     0.36100
C2904       C  0.24725237  0.71662945  0.61674672    -0.06080
C2905       C  0.24609297  0.72874823  0.64998891    -0.33050
C2906       C  0.23443801  0.74748642  0.65044832     0.36010
H2907       H  0.22227421  0.75125576  0.55580686     0.16380
O2908       O  0.24132612  0.71445394  0.54909237    -0.60540
H2909       H  0.25212499  0.72238667  0.67688675     0.16390
O2910       O  0.23118604  0.75718111  0.68459026    -0.60640
H2911       H  0.21615249  0.75421924  0.69089522     0.43390
H2912       H  0.24979776  0.72411973  0.53187922     0.43340
C2913       C  0.24053595  0.82659149  0.72987195    -0.05720
C2914       C  0.21941795  0.83150024  0.72035682    -0.33150
C2915       C  0.20262237  0.82671929  0.74562755     0.36100
C2916       C  0.20647622  0.81625181  0.78094395    -0.06080
C2917       C  0.22760523  0.81276353  0.79172127    -0.33050
C2918       C  0.24453269  0.81844243  0.76710016     0.36010
H2919       H  0.21568772  0.83805201  0.69226746     0.16380
O2920       O  0.18233262  0.83056665  0.73402131    -0.60540
H2921       H  0.23102618  0.80497948  0.81898529     0.16390
O2922       O  0.26474359  0.81417275  0.77868164    -0.60640
H2923       H  0.26976079  0.82758037  0.79116378     0.43390
H2924       H  0.17932310  0.84538960  0.74267947     0.43340
C2925       C  0.26553366  0.83390569  0.50696208    -0.05720
C2926       C  0.24581098  0.84235522  0.51693949    -0.33150
C2927       C  0.22887260  0.84030063  0.49141732     0.36100
C2928       C  0.23292774  0.83261740  0.95487026    -0.06080
C2929       C  0.25399641  0.83350974  0.94169011    -0.33050
C2930       C  0.27054443  0.83352824  0.96815693     0.36010
H2931       H  0.24214671  0.84440485  0.54678293     0.16380
O2932       O  0.20862745  0.84131895  0.50485918    -0.60540
H2933       H  0.25752669  0.82937377  0.91256688     0.16390
O2934       O  0.29044740  0.82810029  0.95683784    -0.60640
H2935       H  0.29006189  0.81208875  0.95430101     0.43390
H2936       H  0.20331182  0.85540950  0.49497443     0.43340
C2937       C  0.10593498  0.59467708  0.70843058    -0.05720
C2938       C  0.12141069  0.60675268  0.72726351    -0.33150
C2939       C  0.13515153  0.62084154  0.70720979     0.36100
C2940       C  0.13392728  0.62320023  0.66668810    -0.06080
C2941       C  0.11791798  0.61174783  0.64783721    -0.33050
C2942       C  0.10396840  0.59771452  0.66817029     0.36010
H2943       H  0.12336148  0.60489361  0.75784350     0.16380
O2944       O  0.15053317  0.63127678  0.72783198    -0.60540
H2945       H  0.11640241  0.61332440  0.61714640     0.16390
O2946       O  0.08865086  0.58688508  0.64805356    -0.60640
H2947       H  0.09563943  0.57389874  0.63817931     0.43390
H2948       H  0.14380377  0.64453032  0.73721883     0.43340
C2949       C  0.06106348  0.45545088  0.91604866    -0.05720
C2950       C  0.08238633  0.45729603  0.90485704    -0.33150
C2951       C  0.09063235  0.47649544  0.88752267     0.36100
C2952       C  0.07780664  0.49473699  0.88135289    -0.06080
C2953       C  0.05704431  0.49361749  0.89552874    -0.33050
C2954       C  0.04862328  0.47427948  0.91239585     0.36010
H2955       H  0.09254710  0.44340468  0.90772183     0.16380
O2956       O  0.11075882  0.47654395  0.87323306    -0.60540
H2957       H  0.04660623  0.50710241  0.89021205     0.16390
O2958       O  0.02802567  0.47391082  0.92433275    -0.60640
H2959       H  0.01953254  0.47097915  0.90118729     0.43390
H2960       H  0.11970556  0.48297604  0.89339821     0.43340
C2961       C  0.08441809  0.50264401  0.64050247    -0.05720
C2962       C  0.08970663  0.48081827  0.64752656    -0.33150
C2963       C  0.08441316  0.46504676  0.62082792     0.36100
C2964       C  0.07478421  0.47155551  0.58636739    -0.06080
C2965       C  0.07513507  0.49379080  0.57594062    -0.33050
C2966       C  0.08027609  0.50942348  0.60280832     0.36010
H2967       H  0.09354750  0.47542521  0.67630799     0.16380
O2968       O  0.08516241  0.44352333  0.63152932    -0.60540
H2969       H  0.06861055  0.49913861  0.54879313     0.16390
O2970       O  0.07602367  0.53077997  0.59455970    -0.60640
H2971       H  0.09003444  0.53800553  0.59126725     0.43390
H2972       H  0.09871632  0.43842160  0.62127045     0.43340
C2973       C  0.98253557  0.57853728  0.59643170    -0.05720
C2974       C  0.00429512  0.58352823  0.59587282    -0.33150
C2975       C  0.01792456  0.57441993  0.62313548     0.36100
C2976       C  0.00988534  0.55968723  0.65098930    -0.06080
C2977       C  0.98794171  0.55627923  0.65366366    -0.33050
C2978       C  0.97426727  0.56564813  0.62682624     0.36010
H2979       H  0.01096453  0.59327222  0.57258668     0.16380
O2980       O  0.03923600  0.57823311  0.61979184    -0.60540
H2981       H  0.98143223  0.54536421  0.67551455     0.16390
O2982       O  0.95312509  0.56046085  0.62863548    -0.60640
H2983       H  0.95171031  0.54577788  0.61781890     0.43390
H2984       H  0.04207713  0.59156682  0.63435431     0.43340
C2985       C  0.98635220  0.57073979  0.86513785    -0.05720
C2986       C  0.00507006  0.57251219  0.88654991    -0.33150
C2987       C  0.02462149  0.56699667  0.87085301     0.36100
C2988       C  0.02564940  0.55964949  0.83323681    -0.06080
C2989       C  0.00740512  0.56043729  0.81051406    -0.33050
C2990       C  0.98796667  0.56631143  0.82608826     0.36010
H2991       H  0.00422270  0.57550441  0.91680683     0.16380
O2992       O  0.04218845  0.56664266  0.89371262    -0.60540
H2993       H  0.00797215  0.55547539  0.78115911     0.16390
O2994       O  0.97008525  0.56514047  0.80414700    -0.60640
H2995       H  0.96842623  0.57997550  0.79308553     0.43390
H2996       H  0.04895292  0.58118474  0.89004689     0.43340
C2997       C  0.98590382  0.50362718  0.98385327    -0.05720
C2998       C  0.98180865  0.49106986  0.95163321    -0.33150
C2999       C  0.97371218  0.47014983  0.95572572     0.36100
C3000       C  0.97335146  0.46046462  0.99227376    -0.06080
C3001       C  0.97360083  0.47369664  0.52414790    -0.33050
C3002       C  0.98100671  0.49493314  0.52044752     0.36010
H3003       H  0.98494535  0.49732979  0.92304447     0.16380
O3004       O  0.97054628  0.45801892  0.92386675    -0.60540
H3005       H  0.97197114  0.46666105  0.55264632     0.16390
O3006       O  0.98386299  0.50669575  0.55282648    -0.60640
H3007       H  0.99860463  0.50398854  0.56093603     0.43390
H3008       H  0.95524743  0.45904282  0.91827557     0.43340
C3009       C  0.97465341  0.49377913  0.73008123    -0.05720
C3010       C  0.98568631  0.47722811  0.71254542    -0.33150
C3011       C  0.00400361  0.46921039  0.72885172     0.36100
C3012       C  0.01227043  0.47863829  0.76197665    -0.06080
C3013       C  0.00099057  0.49482726  0.78007299    -0.33050
C3014       C  0.98257497  0.50271555  0.76386468     0.36010
H3015       H  0.97954948  0.46964133  0.68719696     0.16380
O3016       O  0.01497835  0.45375579  0.70996438    -0.60540
H3017       H  0.00729786  0.50269066  0.80504186     0.16390
O3018       O  0.97190043  0.51861059  0.78203251    -0.60640
H3019       H  0.97234700  0.53131157  0.76412085     0.43390
H3020       H  0.01617690  0.44127667  0.72820814     0.43340
C3021       C  0.96154958  0.41722624  0.64381051    -0.05720
C3022       C  0.96188229  0.40687436  0.60855415    -0.33150
C3023       C  0.98122232  0.40072439  0.59214788     0.36100
C3024       C  0.00046279  0.40553084  0.61076524    -0.06080
C3025       C  0.99959260  0.41243329  0.64853114    -0.33050
C3026       C  0.98038185  0.41791052  0.66517242     0.36010
H3027       H  0.94733571  0.40476388  0.59268551     0.16380
O3028       O  0.98151948  0.39149612  0.55683827    -0.60540
H3029       H  0.01412423  0.41581353  0.66379639     0.16390
O3030       O  0.98039792  0.42449205  0.70204289    -0.60640
H3031       H  0.97812560  0.41103932  0.71772004     0.43390
H3032       H  0.97132763  0.39946142  0.54048319     0.43340
C3033       C  0.99978219  0.39192776  0.87963377    -0.05720
C3034       C  0.97781476  0.38853447  0.88457998    -0.33150
C3035       C  0.96323615  0.39714077  0.85829812     0.36100
C3036       C  0.97055265  0.40910280  0.82627054    -0.06080
C3037       C  0.99240448  0.41001684  0.81888818    -0.33050
C3038       C  0.00696566  0.40146101  0.84504151     0.36010
H3039       H  0.97184769  0.38101571  0.91073949     0.16380
O3040       O  0.94206018  0.39560658  0.86616497    -0.60540
H3041       H  0.99832875  0.41897035  0.79403011     0.16390
O3042       O  0.02808919  0.40510825  0.83862546    -0.60640
H3043       H  0.03287532  0.39209563  0.82525932     0.43390
H3044       H  0.93903498  0.40839003  0.88176358     0.43340
C3045       C  0.90473224  0.48570334  0.59710742    -0.05720
C3046       C  0.89504376  0.50585303  0.60201570    -0.33150
C3047       C  0.90184979  0.52457892  0.58164384     0.36100
C3048       C  0.91881731  0.52350723  0.55597942    -0.06080
C3049       C  0.92685440  0.50295491  0.54797205    -0.33050
C3050       C  0.91984968  0.48411938  0.56811130     0.36010
H3051       H  0.88348252  0.50750731  0.62443174     0.16380
O3052       O  0.89330519  0.54416632  0.59009005    -0.60540
H3053       H  0.93912824  0.50165691  0.52691875     0.16390
O3054       O  0.92961728  0.46480768  0.56240442    -0.60640
H3055       H  0.92206379  0.45828301  0.54059864     0.43390
H3056       H  0.88060317  0.54534012  0.57367078     0.43340
C3057       C  0.89757210  0.47698091  0.82949755    -0.05720
C3058       C  0.89643902  0.49861424  0.81569263    -0.33150
C3059       C  0.90044798  0.51595513  0.84009953     0.36100
C3060       C  0.90450089  0.51151147  0.87883550    -0.06080
C3061       C  0.89986189  0.49048458  0.89361863    -0.33050
C3062       C  0.89672156  0.47311944  0.86905522     0.36010
H3063       H  0.89687704  0.50191344  0.78521196     0.16380
O3064       O  0.90442684  0.53627733  0.82467398    -0.60540
H3065       H  0.90236356  0.48685407  0.92365982     0.16390
O3066       O  0.89684163  0.45222954  0.88360365    -0.60640
H3067       H  0.91191341  0.44892904  0.88824247     0.43390
H3068       H  0.89130785  0.54440989  0.82882460     0.43340
C3069       C  0.86124626  0.64440779  0.90532599    -0.05720
C3070       C  0.87027383  0.62931503  0.88098850    -0.33150
C3071       C  0.88477619  0.61423709  0.89460884     0.36100
C3072       C  0.89063496  0.61399801  0.93334646    -0.06080
C3073       C  0.88234933  0.62967148  0.95733435    -0.33050
C3074       C  0.86776990  0.64472120  0.94374616     0.36010
H3075       H  0.86551390  0.62851694  0.85138578     0.16380
O3076       O  0.89223939  0.59916078  0.87011978    -0.60540
H3077       H  0.88702703  0.63023230  0.98700998     0.16390
O3078       O  0.85999583  0.65954041  0.96840413    -0.60640
H3079       H  0.84874807  0.65162550  0.98299920     0.43390
H3080       H  0.90418175  0.60653319  0.85654568     0.43340
C3081       C  0.76440480  0.65360505  0.97441865    -0.05720
C3082       C  0.74704451  0.64966298  0.95028984    -0.33150
C3083       C  0.72665189  0.65279536  0.96417691     0.36100
C3084       C  0.72403536  0.65665884  0.50304377    -0.06080
C3085       C  0.74077586  0.65191780  0.52811817    -0.33050
C3086       C  0.76134512  0.65135043  0.01385216     0.36010
H3087       H  0.74927878  0.65017570  0.91963946     0.16380
O3088       O  0.71025550  0.65584199  0.93912815    -0.60540
H3089       H  0.73873019  0.65389581  0.55849747     0.16390
O3090       O  0.77805481  0.65384354  0.03831175    -0.60640
H3091       H  0.78362848  0.63902288  0.54233978     0.43390
H3092       H  0.71150782  0.67122594  0.93025101     0.43340
C3093       C  0.72336404  0.64449488  0.70930554    -0.05720
C3094       C  0.71648538  0.64577931  0.74693958    -0.33150
C3095       C  0.73101827  0.64544063  0.77698198     0.36100
C3096       C  0.75305992  0.64459216  0.76947059    -0.06080
C3097       C  0.75954510  0.64010290  0.73252032    -0.33050
C3098       C  0.74489872  0.63971279  0.70259619     0.36010
H3099       H  0.70005949  0.64881624  0.75302012     0.16380
O3100       O  0.72348610  0.64787816  0.81321346    -0.60540
H3101       H  0.77614759  0.63834739  0.72620617     0.16390
O3102       O  0.75204010  0.63585030  0.66650457    -0.60640
H3103       H  0.76019135  0.64909672  0.65850467     0.43390
H3104       H  0.72208490  0.63291132  0.82409059     0.43340
C3105       C  0.81912405  0.75766886  0.73607734    -0.05720
C3106       C  0.82654908  0.73756010  0.72433594    -0.33150
C3107       C  0.82288480  0.71852312  0.74657840     0.36100
C3108       C  0.81102859  0.71930844  0.78052800    -0.06080
C3109       C  0.80513258  0.73961706  0.79368773    -0.33050
C3110       C  0.80940578  0.75866684  0.77213261     0.36010
H3111       H  0.83332498  0.73623665  0.69617998     0.16380
O3112       O  0.82904448  0.69897245  0.73291123    -0.60540
H3113       H  0.79658832  0.74067456  0.82023644     0.16390
O3114       O  0.80154064  0.77791581  0.78419203    -0.60640
H3115       H  0.81312370  0.78463615  0.79912708     0.43390
H3116       H  0.84387279  0.69739626  0.74146758     0.43340
C3117       C  0.82177117  0.74008552  0.97880758    -0.05720
C3118       C  0.82001265  0.73777104  0.51862806    -0.33150
C3119       C  0.81961041  0.75606733  0.54185705     0.36100
C3120       C  0.82140069  0.77713858  0.52548458    -0.06080
C3121       C  0.82535378  0.77939728  0.98625118    -0.33050
C3122       C  0.82527798  0.76113274  0.96293315     0.36010
H3123       H  0.81676186  0.72186209  0.53135741     0.16380
O3124       O  0.81601049  0.75319069  0.58016020    -0.60540
H3125       H  0.82696461  0.79546826  0.97319897     0.16390
O3126       O  0.82661466  0.76415575  0.92412795    -0.60640
H3127       H  0.81211820  0.76771515  0.91560250     0.43390
H3128       H  0.83020479  0.75338452  0.59210371     0.43340
C3129       C  0.74919175  0.77265107  0.60774779    -0.05720
C3130       C  0.75728664  0.76245382  0.57563123    -0.33150
C3131       C  0.75934534  0.74006540  0.57534222     0.36100
C3132       C  0.75268092  0.72732037  0.60711430    -0.06080
C3133       C  0.74494453  0.73753141  0.63948592    -0.33050
C3134       C  0.74286511  0.75991564  0.63975496     0.36010
H3135       H  0.76264482  0.77185829  0.55088644     0.16380
O3136       O  0.76699216  0.73080492  0.54310233    -0.60540
H3137       H  0.73949828  0.72812274  0.66416592     0.16390
O3138       O  0.73505610  0.76914963  0.67186309    -0.60640
H3139       H  0.72077544  0.77408745  0.66467037     0.43390
H3140       H  0.78030489  0.72381061  0.55104593     0.43340
C3141       C  0.75651996  0.77467462  0.85306278    -0.05720
C3142       C  0.75507678  0.76078738  0.82208729    -0.33150
C3143       C  0.74813576  0.73942716  0.82715847     0.36100
C3144       C  0.74376428  0.73109399  0.86419706    -0.06080
C3145       C  0.74553043  0.74487800  0.89529652    -0.33050
C3146       C  0.75231335  0.76631540  0.89015321     0.36010
H3147       H  0.75840908  0.76669520  0.79335694     0.16380
O3148       O  0.74613786  0.72677609  0.79566413    -0.60540
H3149       H  0.74221073  0.73891355  0.92401059     0.16390
O3150       O  0.75410581  0.77908404  0.92152718    -0.60640
H3151       H  0.76899308  0.77777620  0.92992111     0.43390
H3152       H  0.73124026  0.72824601  0.78741697     0.43340
C3153       C  0.68010256  0.76145573  0.73693714    -0.05720
C3154       C  0.67880913  0.74055157  0.75392357    -0.33150
C3155       C  0.67899131  0.72196997  0.73169728     0.36100
C3156       C  0.68068242  0.72408879  0.69186634    -0.06080
C3157       C  0.68018920  0.74487752  0.67458268    -0.33050
C3158       C  0.67969291  0.76351028  0.69689944     0.36010
H3159       H  0.67979589  0.73861544  0.78466402     0.16380
O3160       O  0.67942374  0.70185963  0.74932254    -0.60540
H3161       H  0.68118837  0.74669528  0.64384698     0.16390
O3162       O  0.68126918  0.78363024  0.67944226    -0.60640
H3163       H  0.66656342  0.78877667  0.67755406     0.43390
H3164       H  0.66445415  0.69693540  0.75079607     0.43340
C3165       C  0.68687925  0.78406632  0.93371306    -0.05720
C3166       C  0.67794603  0.78620840  0.97006787    -0.33150
C3167       C  0.67501856  0.76800935  0.99479024     0.36100
C3168       C  0.68052000  0.74711422  0.98308531    -0.06080
C3169       C  0.68773057  0.74483596  0.94557911    -0.33050
C3170       C  0.69091604  0.76299657  0.92109030     0.36010
H3171       H  0.67454411  0.80221787  0.98029595     0.16380
O3172       O  0.66896632  0.77112581  0.53170067    -0.60540
H3173       H  0.69278416  0.72909744  0.93633624     0.16390
O3174       O  0.69885368  0.75996229  0.88541336    -0.60640
H3175       H  0.68635056  0.75709782  0.86912882     0.43390
H3176       H  0.65351495  0.76827807  0.53199783     0.43340
C3177       C  0.77474262  0.85463859  0.50446195    -0.05720
C3178       C  0.75333270  0.85864443  0.51337822    -0.33150
C3179       C  0.73760035  0.85919206  0.98524247     0.36100
C3180       C  0.74305320  0.85630370  0.94706441    -0.06080
C3181       C  0.76480860  0.85513021  0.93778973    -0.33050
C3182       C  0.78047425  0.85408892  0.96599084     0.36010
H3183       H  0.74836051  0.85979163  0.54276613     0.16380
O3184       O  0.71690328  0.86094651  0.99585303    -0.60540
H3185       H  0.76978022  0.85342550  0.90852274     0.16390
O3186       O  0.80094900  0.85057120  0.95559823    -0.60640
H3187       H  0.80750609  0.86525368  0.95262134     0.43390
H3188       H  0.71407743  0.87671890  0.49443096     0.43340
C3189       C  0.73528288  0.84992763  0.73969022    -0.05720
C3190       C  0.75263010  0.85400606  0.76379809    -0.33150
C3191       C  0.77308143  0.85150515  0.74974561     0.36100
C3192       C  0.77569642  0.84756311  0.71090539    -0.06080
C3193       C  0.75886772  0.85221682  0.68592762    -0.33050
C3194       C  0.73827656  0.85234442  0.70025999     0.36010
H3195       H  0.75044439  0.85319971  0.79445416     0.16380
O3196       O  0.78933661  0.84796485  0.77483245    -0.60540
H3197       H  0.76087258  0.85015349  0.65555295     0.16390
O3198       O  0.72159818  0.84955169  0.67582680    -0.60640
H3199       H  0.71542104  0.86415118  0.67263574     0.43390
H3200       H  0.79727221  0.86197190  0.77544368     0.43340
C3201       C  0.59726067  0.62371943  0.52871968    -0.05720
C3202       C  0.60656352  0.63980806  0.50475567    -0.33150
C3203       C  0.61956848  0.65611823  0.51955499     0.36100
C3204       C  0.62340190  0.65663254  0.55912200    -0.06080
C3205       C  0.61207653  0.64206249  0.58335343    -0.33050
C3206       C  0.59910513  0.62571404  0.56849935     0.36010
H3207       H  0.60467936  0.63912900  0.97409930     0.16380
O3208       O  0.62907882  0.67089973  0.49489422    -0.60540
H3209       H  0.61448853  0.64217564  0.61391638     0.16390
O3210       O  0.59004045  0.61062174  0.59308895    -0.60640
H3211       H  0.57619526  0.61668847  0.59987365     0.43390
H3212       H  0.64082845  0.66305356  0.48308043     0.43340
C3213       C  0.58644995  0.51931993  0.87011788    -0.05720
C3214       C  0.56527852  0.51310215  0.86413925    -0.33150
C3215       C  0.55954151  0.49423616  0.84444842     0.36100
C3216       C  0.57515279  0.48160350  0.82731229    -0.06080
C3217       C  0.59648490  0.48831855  0.83200270    -0.33050
C3218       C  0.60213576  0.50649271  0.85405453     0.36010
H3219       H  0.55286775  0.52193823  0.87747854     0.16380
O3220       O  0.53886995  0.48706246  0.84558745    -0.60540
H3221       H  0.60896163  0.47906622  0.81951959     0.16390
O3222       O  0.62304458  0.51126422  0.86041796    -0.60640
H3223       H  0.62694236  0.50232389  0.88315673     0.43390
H3224       H  0.52995933  0.49997667  0.84128737     0.43340
C3225       C  0.56868291  0.52615196  0.61494871    -0.05720
C3226       C  0.57946651  0.50672888  0.60976357    -0.33150
C3227       C  0.57331885  0.48747474  0.62959617     0.36100
C3228       C  0.55636654  0.48752465  0.65597512    -0.06080
C3229       C  0.54880613  0.50777272  0.66636399    -0.33050
C3230       C  0.55522965  0.52703580  0.64691126     0.36010
H3231       H  0.59007758  0.50552846  0.58575058     0.16380
O3232       O  0.58241503  0.46842913  0.61956118    -0.60540
H3233       H  0.53673818  0.50848520  0.68763419     0.16390
O3234       O  0.54536536  0.54605875  0.65479399    -0.60640
H3235       H  0.53142587  0.54516244  0.64193814     0.43390
H3236       H  0.59440730  0.46654448  0.63746320     0.43340
C3237       C  0.39938905  0.62354156  0.78238630    -0.05720
C3238       C  0.40188530  0.62819137  0.82120476    -0.33150
C3239       C  0.38673524  0.63985666  0.84081870     0.36100
C3240       C  0.36850637  0.64729134  0.82168879    -0.06080
C3241       C  0.36689845  0.64407752  0.78209828    -0.33050
C3242       C  0.38210753  0.63239383  0.76251894     0.36010
H3243       H  0.41533671  0.62207200  0.83697004     0.16380
O3244       O  0.38973366  0.64335974  0.87892316    -0.60540
H3245       H  0.35314751  0.64951418  0.76643810     0.16390
O3246       O  0.37892199  0.62822993  0.72472194    -0.60640
H3247       H  0.38515439  0.64096169  0.71070243     0.43390
H3248       H  0.38587012  0.62939672  0.89202605     0.43340
C3249       C  0.49286352  0.59454750  0.86262207    -0.05720
C3250       C  0.51299212  0.60007082  0.84804123    -0.33150
C3251       C  0.53145299  0.59319434  0.86679429     0.36100
C3252       C  0.53005760  0.58055449  0.90073706    -0.06080
C3253       C  0.51015955  0.57772723  0.91797637    -0.33050
C3254       C  0.49174287  0.58493123  0.89946656     0.36010
H3255       H  0.51439457  0.60710792  0.81952058     0.16380
O3256       O  0.55066238  0.59714268  0.84982297    -0.60540
H3257       H  0.50874112  0.56952410  0.94542304     0.16390
O3258       O  0.47245953  0.58083003  0.91615923    -0.60640
H3259       H  0.46653506  0.56784377  0.90353468     0.43390
H3260       H  0.55540674  0.61150410  0.85910274     0.43340
C3261       C  0.46544899  0.59534265  0.61493920    -0.05720
C3262       C  0.48602961  0.60447775  0.61605220    -0.33150
C3263       C  0.50218832  0.59701938  0.59253966     0.36100
C3264       C  0.49795306  0.58012420  0.56707154    -0.06080
C3265       C  0.47673768  0.57328965  0.56226282    -0.33050
C3266       C  0.46058688  0.58089237  0.58559357     0.36010
H3267       H  0.49025253  0.61545503  0.63861193     0.16380
O3268       O  0.52243663  0.60451624  0.59815768    -0.60540
H3269       H  0.47281708  0.56076428  0.54215442     0.16390
O3270       O  0.44089030  0.57140112  0.58341717    -0.60640
H3271       H  0.43254134  0.58151075  0.56726361     0.43390
H3272       H  0.52410282  0.61724417  0.58049630     0.43340
C3273       C  0.50183067  0.52205777  0.71803810    -0.05720
C3274       C  0.48750357  0.50865765  0.69900070    -0.33150
C3275       C  0.48408967  0.48756799  0.71171460     0.36100
C3276       C  0.49603420  0.47938441  0.74261774    -0.06080
C3277       C  0.51056705  0.49267177  0.76114451    -0.33050
C3278       C  0.51372309  0.51387318  0.74903612     0.36010
H3279       H  0.47847773  0.51469424  0.67492913     0.16380
O3280       O  0.46939652  0.47496711  0.69328467    -0.60540
H3281       H  0.52022868  0.48632959  0.78384666     0.16390
O3282       O  0.52851737  0.52635435  0.76751474    -0.60640
H3283       H  0.54207901  0.52359931  0.75459906     0.43390
H3284       H  0.45685840  0.47443998  0.71018450     0.43340
C3285       C  0.50094826  0.42189871  0.89431088    -0.05720
C3286       C  0.52239962  0.42729896  0.90067324    -0.33150
C3287       C  0.53835390  0.42017631  0.87630056     0.36100
C3288       C  0.53300104  0.40744934  0.84482539    -0.06080
C3289       C  0.51205923  0.39937673  0.84218624    -0.33050
C3290       C  0.49611916  0.40650091  0.86643640     0.36010
H3291       H  0.52671774  0.43845373  0.92290430     0.16380
O3292       O  0.55872562  0.42760063  0.88111055    -0.60540
H3293       H  0.50749820  0.38956095  0.81821286     0.16390
O3294       O  0.47560498  0.40033371  0.85941352    -0.60640
H3295       H  0.47318111  0.38700735  0.87534933     0.43390
H3296       H  0.55836609  0.44352829  0.87643003     0.43340
C3297       C  0.46976865  0.42271070  0.56171607    -0.05720
C3298       C  0.48944068  0.42475937  0.54329232    -0.33150
C3299       C  0.50809083  0.41791995  0.56147398     0.36100
C3300       C  0.50753100  0.40956786  0.59912625    -0.06080
C3301       C  0.48759902  0.40480073  0.61534342    -0.33050
C3302       C  0.46886805  0.41139067  0.59705981     0.36010
H3303       H  0.49062422  0.43221800  0.51521283     0.16380
O3304       O  0.52717516  0.42209693  0.54423660    -0.60540
H3305       H  0.48664791  0.39868865  0.64453312     0.16390
O3306       O  0.44989867  0.40803050  0.61521598    -0.60640
H3307       H  0.44830370  0.42071321  0.63176041     0.43390
H3308       H  0.52961613  0.40938367  0.52815103     0.43340
C3309       C  0.52089896  0.49531904  0.97057487    -0.05720
C3310       C  0.51033523  0.51183742  0.95047476    -0.33150
C3311       C  0.49085326  0.51835379  0.96270942     0.36100
C3312       C  0.48064319  0.50657172  0.99213059    -0.06080
C3313       C  0.49107144  0.48981670  0.51189285    -0.33050
C3314       C  0.51069019  0.48346094  0.49993374     0.36010
H3315       H  0.51808105  0.52137166  0.92801490     0.16380
O3316       O  0.48073282  0.53456001  0.94289910    -0.60540
H3317       H  0.48322500  0.48019540  0.53412546     0.16390
O3318       O  0.52088300  0.46734291  0.51987888    -0.60640
H3319       H  0.52393986  0.45621659  0.50080592     0.43390
H3320       H  0.47783385  0.54573200  0.96198230     0.43340
C3321       C  0.40962540  0.48527248  0.59190557    -0.05720
C3322       C  0.39829875  0.50477133  0.58919427    -0.33150
C3323       C  0.40356427  0.52287924  0.61148434     0.36100
C3324       C  0.42097447  0.52226022  0.63666189    -0.06080
C3325       C  0.43170166  0.50249162  0.64057786    -0.33050
C3326       C  0.42622102  0.48420687  0.61873435     0.36010
H3327       H  0.38592386  0.50640188  0.56801769     0.16380
O3328       O  0.39248661  0.54162694  0.60625281    -0.60540
H3329       H  0.44467746  0.50132909  0.66034783     0.16390
O3330       O  0.43802334  0.46581784  0.62222534    -0.60640
H3331       H  0.45186594  0.46966940  0.61049166     0.43390
H3332       H  0.37980555  0.53970203  0.62259109     0.43340
C3333       C  0.44338027  0.51756075  0.80730419    -0.05720
C3334       C  0.45028819  0.49718862  0.79612265    -0.33150
C3335       C  0.44416208  0.47805176  0.81613502     0.36100
C3336       C  0.43166001  0.47915638  0.84925595    -0.06080
C3337       C  0.42160129  0.49882369  0.85596138    -0.33050
C3338       C  0.42745674  0.51797475  0.83559051     0.36010
H3339       H  0.46172174  0.49627010  0.77366884     0.16380
O3340       O  0.45397249  0.45906402  0.80799745    -0.60540
H3341       H  0.41189009  0.50018969  0.88115153     0.16390
O3342       O  0.41933735  0.53724403  0.84693003    -0.60640
H3343       H  0.40664773  0.53944249  0.83081274     0.43390
H3344       H  0.44574650  0.45287501  0.78666366     0.43340
C3345       C  0.84762954  0.34919811  0.78766513    -0.05720
C3346       C  0.84984783  0.35075902  0.74775961    -0.33150
C3347       C  0.86345183  0.36627457  0.73061951     0.36100
C3348       C  0.87526709  0.38059270  0.75343558    -0.06080
C3349       C  0.87331815  0.37864826  0.79334158    -0.33050
C3350       C  0.85980137  0.36321857  0.81041501     0.36010
H3351       H  0.84095166  0.33996491  0.72955954     0.16380
O3352       O  0.86520164  0.36704007  0.69166242    -0.60540
H3353       H  0.88208651  0.38938894  0.81182970     0.16390
O3354       O  0.85827800  0.36249703  0.84941963    -0.60640
H3355       H  0.87009643  0.35331515  0.85829843     0.43390
H3356       H  0.85311946  0.37576765  0.68253199     0.43340
C3357       C  0.62346094  0.34741134  0.64722443    -0.05720
C3358       C  0.61962221  0.36683751  0.62689439    -0.33150
C3359       C  0.60775317  0.38323887  0.64292053     0.36100
C3360       C  0.59942687  0.38046744  0.68013886    -0.06080
C3361       C  0.60309788  0.36097322  0.70032498    -0.33050
C3362       C  0.61491755  0.34455483  0.68428277     0.36010
H3363       H  0.62620571  0.36957703  0.59867709     0.16380
O3364       O  0.60509788  0.40223616  0.62238087    -0.60540
H3365       H  0.59656579  0.35826216  0.72858770     0.16390
O3366       O  0.61744176  0.32550961  0.70475401    -0.60640
H3367       H  0.62901743  0.32852540  0.72305339     0.43390
H3368       H  0.59323637  0.39924098  0.60467003     0.43340
C3369       C  0.71956738  0.30982349  0.99502633    -0.05720
C3370       C  0.71578183  0.30013919  0.95977728    -0.33150
C3371       C  0.73222822  0.29762313  0.93321698     0.36100
C3372       C  0.75303955  0.30510282  0.94117066    -0.06080
C3373       C  0.75654865  0.31569951  0.97572855    -0.33050
C3374       C  0.74020457  0.31778261  0.50257549     0.36010
H3375       H  0.70025021  0.29345624  0.95358029     0.16380
O3376       O  0.72778700  0.28744179  0.89974975    -0.60540
H3377       H  0.77224356  0.32167019  0.98267623     0.16390
O3378       O  0.74478360  0.32698577  0.53687461    -0.60640
H3379       H  0.74141894  0.34255857  0.53329397     0.43390
H3380       H  0.72460951  0.29929952  0.88110704     0.43340
C3381       C  0.75133570  0.28935317  0.75525440    -0.05720
C3382       C  0.73216514  0.28167769  0.77103340    -0.33150
C3383       C  0.71311739  0.28388314  0.75095020     0.36100
C3384       C  0.71294161  0.29369521  0.71424493    -0.06080
C3385       C  0.73170499  0.30331160  0.70013086    -0.33050
C3386       C  0.75074818  0.30154967  0.72063748     0.36010
H3387       H  0.73212187  0.27259562  0.79788304     0.16380
O3388       O  0.69503928  0.27438031  0.76569526    -0.60540
H3389       H  0.73205385  0.31028895  0.67148172     0.16390
O3390       O  0.76903640  0.30944655  0.70422004    -0.60640
H3391       H  0.77048886  0.32459034  0.71292141     0.43390
H3392       H  0.69596810  0.25873146  0.76001689     0.43340
C3393       C  0.83911958  0.27022143  0.93702777    -0.05720
C3394       C  0.83580359  0.27409389  0.97564741    -0.33150
C3395       C  0.83468798  0.25665598  0.00200627     0.36100
C3396       C  0.83696478  0.23513636  0.98962828    -0.06080
C3397       C  0.84445706  0.23188045  0.95281772    -0.33050
C3398       C  0.84599658  0.24944979  0.92665738     0.36010
H3399       H  0.83056638  0.28987602  0.98431251     0.16380
O3400       O  0.82764190  0.26041717  0.03816132    -0.60540
H3401       H  0.84636540  0.21553228  0.94284481     0.16390
O3402       O  0.85030798  0.24538431  0.88926854    -0.60640
H3403       H  0.86519202  0.25020306  0.88552627     0.43390
H3404       H  0.84022016  0.25888407  0.05479010     0.43340
C3405       C  0.83561056  0.20683963  0.68869399    -0.05720
C3406       C  0.84234726  0.22587148  0.66878779    -0.33150
C3407       C  0.84239554  0.24611150  0.68650997     0.36100
C3408       C  0.83744723  0.24721699  0.72537635    -0.06080
C3409       C  0.83519901  0.22760675  0.74668887    -0.33050
C3410       C  0.83367374  0.20759336  0.72850940     0.36010
H3411       H  0.84480346  0.22564256  0.63835432     0.16380
O3412       O  0.84467101  0.26479237  0.66470292    -0.60540
H3413       H  0.83113565  0.22806075  0.77664162     0.16390
O3414       O  0.82688564  0.18955445  0.74899799    -0.60640
H3415       H  0.83990592  0.18161980  0.75565557     0.43390
H3416       H  0.83054106  0.26737383  0.65341206     0.43340
C3417       C  0.76967903  0.25472005  0.66122117    -0.05720
C3418       C  0.76312909  0.27294676  0.64039196    -0.33150
C3419       C  0.74462542  0.26987933  0.61926313     0.36100
C3420       C  0.73082527  0.25226759  0.62966155    -0.06080
C3421       C  0.73467056  0.24104314  0.66469757    -0.33050
C3422       C  0.75376345  0.24489075  0.68376084     0.36010
H3423       H  0.77476315  0.28475991  0.62999306     0.16380
O3424       O  0.74193643  0.28207756  0.58669800    -0.60540
H3425       H  0.72362347  0.22893768  0.67613331     0.16390
O3426       O  0.75899643  0.23217229  0.71484416    -0.60640
H3427       H  0.74982228  0.23700649  0.73573212     0.44670
H3428       H  0.74937849  0.27422471  0.56652990     0.43340
C3429       C  0.78176484  0.20700530  0.88185633    -0.05720
C3430       C  0.77218536  0.21157419  0.91655287    -0.33150
C3431       C  0.75088679  0.21708354  0.91414455     0.36100
C3432       C  0.73972776  0.21239675  0.87990201    -0.06080
C3433       C  0.74901875  0.19809940  0.85428201    -0.33050
C3434       C  0.77014621  0.19259134  0.85964003     0.36010
H3435       H  0.78160512  0.21759257  0.93996312     0.16380
O3436       O  0.74206812  0.22841465  0.94309540    -0.60540
H3437       H  0.74109738  0.19292862  0.82901766     0.16390
O3438       O  0.78022312  0.17946680  0.83463387    -0.60640
H3439       H  0.77844292  0.18617631  0.80885873     0.43390
H3440       H  0.74594092  0.24385547  0.93764739     0.43340
C3441       C  0.64125893  0.25905922  0.52355905    -0.05720
C3442       C  0.62724433  0.26385288  0.49367704    -0.33150
C3443       C  0.62125567  0.24761549  0.96819729     0.36100
C3444       C  0.62976835  0.22662144  0.97236568    -0.06080
C3445       C  0.63892676  0.22080584  0.00727020    -0.33050
C3446       C  0.64578477  0.23699349  0.53181952     0.36010
H3447       H  0.62305306  0.28052436  0.48731521     0.16380
O3448       O  0.61090723  0.25345988  0.93527795    -0.60540
H3449       H  0.64495003  0.20457664  0.01175219     0.16390
O3450       O  0.65855427  0.23115258  0.56174578    -0.60640
H3451       H  0.67285164  0.22991660  0.55069346     0.43390
H3452       H  0.59593402  0.24923507  0.43988204     0.43340
C3453       C  0.64363165  0.21577822  0.77485767    -0.05720
C3454       C  0.63251606  0.21123558  0.74126730    -0.33150
C3455       C  0.62603953  0.22829371  0.71684409     0.36100
C3456       C  0.63140202  0.24994416  0.72563185    -0.06080
C3457       C  0.63719671  0.25427215  0.76320754    -0.33050
C3458       C  0.64456233  0.23748879  0.78701389     0.36010
H3459       H  0.63093383  0.19465361  0.73191901     0.16380
O3460       O  0.61919335  0.22350149  0.68087781    -0.60540
H3461       H  0.64072471  0.27087361  0.77100316     0.16390
O3462       O  0.65453725  0.24286100  0.82019202    -0.60640
H3463       H  0.64302890  0.24592897  0.83829171     0.43390
H3464       H  0.60367345  0.22518740  0.68162339     0.43340
C3465       C  0.71015100  0.18768009  0.97945782    -0.05720
C3466       C  0.71144418  0.19725781  0.01525323    -0.33150
C3467       C  0.73051005  0.19814202  0.53565129     0.36100
C3468       C  0.74935602  0.19028244  0.51989716    -0.06080
C3469       C  0.74772153  0.17885856  0.98568268    -0.33050
C3470       C  0.72829497  0.17734731  0.96571355     0.36010
H3471       H  0.69771340  0.20489038  0.52689108     0.16380
O3472       O  0.73071652  0.20772773  0.57045857    -0.60540
H3473       H  0.76177001  0.17242670  0.97294558     0.16390
O3474       O  0.72788350  0.16789366  0.93076306    -0.60640
H3475       H  0.72374710  0.15251580  0.93603607     0.43390
H3476       H  0.72909260  0.19559017  0.58937720     0.43340
C3477       C  0.75239643  0.15826909  0.70091258    -0.05720
C3478       C  0.75713740  0.15516393  0.73975269    -0.33150
C3479       C  0.74111310  0.15567221  0.76760796     0.36100
C3480       C  0.71989556  0.15963856  0.75715237    -0.06080
C3481       C  0.71493090  0.16083879  0.71822209    -0.33050
C3482       C  0.73084378  0.16012421  0.69036990     0.36010
H3483       H  0.77340084  0.15351177  0.74876729     0.16380
O3484       O  0.74645129  0.15275139  0.80521523    -0.60540
H3485       H  0.69879256  0.16353576  0.70929750     0.16390
O3486       O  0.72519025  0.16233127  0.65274230    -0.60640
H3487       H  0.72382554  0.14728440  0.64352064     0.43390
H3488       H  0.74426130  0.13700914  0.81072077     0.43340
C3489       C  0.10971346  0.88470340  0.95599787    -0.05720
C3490       C  0.11677945  0.86785705  0.98041551    -0.33150
C3491       C  0.12852375  0.85061016  0.96630844     0.36100
C3492       C  0.13344584  0.84995354  0.92708398    -0.06080
C3493       C  0.12650851  0.86693622  0.90298795    -0.33050
C3494       C  0.11485724  0.88402290  0.91687243     0.36010
H3495       H  0.11316753  0.86799476  0.01056192     0.16380
O3496       O  0.13461897  0.83430323  0.99101297    -0.60540
H3497       H  0.13024014  0.86720871  0.87286642     0.16390
O3498       O  0.10947132  0.90052428  0.89193004    -0.60640
H3499       H  0.09652356  0.89526443  0.87887758     0.43390
H3500       H  0.14821659  0.83944197  0.00192103     0.43340
C3501       C  0.09379887  0.01992759  0.82637487    -0.05720
C3502       C  0.09798390  0.02356517  0.86485211    -0.33150
C3503       C  0.10051283  0.00578177  0.89005842     0.36100
C3504       C  0.09740241  0.98451942  0.87660606    -0.06080
C3505       C  0.09909653  0.98127711  0.83752134    -0.33050
C3506       C  0.09776751  0.99909668  0.81209575     0.36010
H3507       H  0.09562608  0.03949245  0.87638011     0.16380
O3508       O  0.10062606  0.00932521  0.92848547    -0.60540
H3509       H  0.09756181  0.96502501  0.82658676     0.16390
O3510       O  0.09603231  0.99550839  0.77374178    -0.60640
H3511       H  0.08223299  0.98794207  0.77016738     0.43390
H3512       H  0.11499787  0.00547435  0.93721522     0.43340
C3513       C  0.10184681  0.03354006  0.63669994    -0.05720
C3514       C  0.11192179  0.03603507  0.60146421    -0.33150
C3515       C  0.11559315  0.01776603  0.57926064     0.36100
C3516       C  0.10854231  0.99668049  0.59175115    -0.06080
C3517       C  0.10112141  0.99405166  0.62909709    -0.33050
C3518       C  0.09788870  0.01221926  0.65152161     0.36010
H3519       H  0.11520782  0.05215250  0.58964540     0.16380
O3520       O  0.12402135  0.02101331  0.54355913    -0.60540
H3521       H  0.09568604  0.97822256  0.63953730     0.16390
O3522       O  0.08856536  0.00909761  0.68651968    -0.60640
H3523       H  0.09950936  0.01342684  0.70521602     0.43390
H3524       H  0.13915893  0.01749527  0.54636200     0.43340
C3525       C  0.88881312  0.11222515  0.51848130    -0.05720
C3526       C  0.87140974  0.11648809  0.49443198    -0.33150
C3527       C  0.85390424  0.12797954  0.50746689     0.36100
C3528       C  0.85349737  0.13533054  0.54519103    -0.06080
C3529       C  0.87137311  0.13212435  0.56828428    -0.33050
C3530       C  0.88886778  0.12100548  0.55528414     0.36010
H3531       H  0.87085235  0.10999519  0.46604059     0.16380
O3532       O  0.83702321  0.13114857  0.48359216    -0.60540
H3533       H  0.87181474  0.13819849  0.59699592     0.16390
O3534       O  0.90564583  0.11821597  0.57956423    -0.60640
H3535       H  0.91564912  0.13031444  0.57309146     0.43390
H3536       H  0.82760585  0.11829729  0.48800628     0.43340
C3537       C  0.99009884  0.09130384  0.59475501    -0.05720
C3538       C  0.01039468  0.09379855  0.57842029    -0.33150
C3539       C  0.02860951  0.09658844  0.60120416     0.36100
C3540       C  0.02680208  0.09722447  0.64116742    -0.06080
C3541       C  0.00627813  0.09794322  0.65672385    -0.33050
C3542       C  0.98811154  0.09506984  0.63395772     0.36010
H3543       H  0.01245797  0.09057336  0.54844690     0.16380
O3544       O  0.04813720  0.09563146  0.58457961    -0.60540
H3545       H  0.00437950  0.09810120  0.68739802     0.16390
O3546       O  0.96886315  0.09238271  0.65138019    -0.60640
H3547       H  0.96184197  0.10653584  0.64775747     0.43390
H3548       H  0.05115930  0.07992998  0.58310733     0.43340
C3549       C  0.97204120  0.05991130  0.90721718    -0.05720
C3550       C  0.97090537  0.07013877  0.87098127    -0.33150
C3551       C  0.98891312  0.07222681  0.84734376     0.36100
C3552       C  0.00865252  0.06433888  0.85978195    -0.06080
C3553       C  0.01001411  0.05541853  0.89685256    -0.33050
C3554       C  0.99213422  0.05370930  0.92063979     0.36010
H3555       H  0.95579288  0.07539444  0.86002770     0.16380
O3556       O  0.98673462  0.08067893  0.81104651    -0.60540
H3557       H  0.02482365  0.04884400  0.90688998     0.16390
O3558       O  0.99444780  0.04567569  0.95702925    -0.60640
H3559       H  0.00074151  0.05778993  0.97157470     0.43390
H3560       H  0.98308292  0.06808736  0.79508323     0.43340
C3561       C  0.02799379  0.01034309  0.99207720    -0.05720
C3562       C  0.01393632  0.00386998  0.46348652    -0.33150
C3563       C  0.99353607  0.99711026  0.47246578     0.36100
C3564       C  0.98626547  0.99854832  0.01025296    -0.06080
C3565       C  0.00005886  0.00598585  0.03863974    -0.33050
C3566       C  0.02071792  0.01210698  0.02973723     0.36010
H3567       H  0.01877697  0.00341016  0.43399045     0.16380
O3568       O  0.98084681  0.98911197  0.44406791    -0.60540
H3569       H  0.99491629  0.00717466  0.06790232     0.16390
O3570       O  0.03382262  0.01941564  0.05808438    -0.60640
H3571       H  0.03697428  0.00643443  0.07426578     0.43390
H3572       H  0.97741974  0.00180541  0.42738514     0.43340
C3573       C  0.91109241  0.86944969  0.69066330    -0.05720
C3574       C  0.89898981  0.85474158  0.71329078    -0.33150
C3575       C  0.88272307  0.84206967  0.69744578     0.36100
C3576       C  0.87828364  0.84369673  0.65796030    -0.06080
C3577       C  0.89180129  0.85675006  0.63487122    -0.33050
C3578       C  0.90801766  0.86944868  0.65073292     0.36010
H3579       H  0.90116314  0.85397502  0.74391417     0.16380
O3580       O  0.87086212  0.82871463  0.72121184    -0.60540
H3581       H  0.88914221  0.85812619  0.60441618     0.16390
O3582       O  0.91980459  0.88282712  0.62692449    -0.60640
H3583       H  0.93247768  0.87439129  0.62077833     0.43390
H3584       H  0.86061742  0.83833934  0.73340773     0.43340
C3585       C  0.00146155  0.93250799  0.63104371    -0.05720
C3586       C  0.99932643  0.94057911  0.59347421    -0.33150
C3587       C  0.01694682  0.94337418  0.56932120     0.36100
C3588       C  0.03741501  0.93815721  0.58228786    -0.06080
C3589       C  0.03934474  0.92859890  0.61896507    -0.33050
C3590       C  0.02168503  0.92601779  0.64331450     0.36010
H3591       H  0.98410955  0.94620946  0.58361250     0.16380
O3592       O  0.01385449  0.95129771  0.53302545    -0.60540
H3593       H  0.05480446  0.92429167  0.62963806     0.16390
O3594       O  0.02467400  0.91879914  0.68016615    -0.60640
H3595       H  0.02134012  0.90301215  0.67995982     0.43390
H3596       H  0.01794916  0.96683425  0.53393728     0.43340
C3597       C  0.01548283  0.92464095  0.88534410    -0.05720
C3598       C  0.01773226  0.92352919  0.84556531    -0.33150
C3599       C  0.99990976  0.92158290  0.82158104     0.36100
C3600       C  0.97938619  0.92090112  0.83715665    -0.06080
C3601       C  0.97722748  0.92018767  0.87694248    -0.33050
C3602       C  0.99498926  0.92208755  0.90088557     0.36010
H3603       H  0.03314003  0.92624749  0.83280100     0.16380
O3604       O  0.00265624  0.92226268  0.78283402    -0.60540
H3605       H  0.96161029  0.91963375  0.88949720     0.16390
O3606       O  0.99203897  0.92332825  0.93950677    -0.60640
H3607       H  0.98796432  0.93853873  0.94385620     0.43390
H3608       H  0.00275124  0.90685367  0.77532732     0.43340
C3609       C  0.97380119  0.00601372  0.75682616    -0.05720
C3610       C  0.98992167  0.99147289  0.76563635    -0.33150
C3611       C  0.00821177  0.99200632  0.74428850     0.36100
C3612       C  0.01172041  0.00897670  0.71738587    -0.06080
C3613       C  0.99644234  0.02496487  0.71163023    -0.33050
C3614       C  0.97759501  0.02367379  0.73164758     0.36010
H3615       H  0.98711152  0.97763124  0.78478445     0.16380
O3616       O  0.02294350  0.97624283  0.75065421    -0.60540
H3617       H  0.99927729  0.03874964  0.69240821     0.16390
O3618       O  0.96191553  0.03803105  0.72289193    -0.60640
H3619       H  0.96159236  0.04801819  0.74459366     0.43390
H3620       H  0.02010818  0.96526988  0.73099016     0.43340
C3621       C  0.90314267  0.99617287  0.90758064    -0.05720
C3622       C  0.91000668  0.97513994  0.91853024    -0.33150
C3623       C  0.90920816  0.95786176  0.89321924     0.36100
C3624       C  0.90128909  0.96129318  0.85627800    -0.06080
C3625       C  0.89153687  0.98131922  0.84753323    -0.33050
C3626       C  0.89277076  0.99874692  0.87244881     0.36010
H3627       H  0.91760127  0.97235688  0.94585181     0.16380
O3628       O  0.91864042  0.93870785  0.90329698    -0.60540
H3629       H  0.88492785  0.98427691  0.81940684     0.16390
O3630       O  0.88509598  0.01851752  0.86095780    -0.60640
H3631       H  0.87034199  0.01853766  0.87031537     0.43390
H3632       H  0.90706420  0.92922020  0.91352379     0.43340
C3633       C  0.91451013  0.97652560  0.64349204    -0.05720
C3634       C  0.91284374  0.97852280  0.60384371    -0.33150
C3635       C  0.91198974  0.99929019  0.58619136     0.36100
C3636       C  0.91469384  0.01782818  0.60865057    -0.06080
C3637       C  0.91180720  0.01560922  0.64807641    -0.33050
C3638       C  0.90983899  0.99484087  0.66509142     0.36010
H3639       H  0.91512666  0.96440095  0.58662882     0.16380
O3640       O  0.91126714  0.00167291  0.54708351    -0.60540
H3641       H  0.91300285  0.02970129  0.66587065     0.16390
O3642       O  0.90744610  0.99286912  0.70382259    -0.60640
H3643       H  0.89267085  0.98773659  0.70771869     0.43390
H3644       H  0.91796133  0.98885910  0.53598216     0.43340
C3645       C  0.38368840  0.85796486  0.55467582    -0.05720
C3646       C  0.37324275  0.84174194  0.53399301    -0.33150
C3647       C  0.35774300  0.82823177  0.55081175     0.36100
C3648       C  0.35197311  0.83077557  0.58938689    -0.06080
C3649       C  0.36305012  0.84640959  0.61060664    -0.33050
C3650       C  0.37869987  0.85989723  0.59369202     0.36010
H3651       H  0.37690705  0.83953204  0.00421472     0.16380
O3652       O  0.34770537  0.81329036  0.52841320    -0.60540
H3653       H  0.35909217  0.84880118  0.64019946     0.16390
O3654       O  0.38866844  0.87513655  0.61556144    -0.60640
H3655       H  0.37973768  0.88816485  0.61353180     0.43390
H3656       H  0.35611709  0.79992803  0.53119366     0.43340
C3657       C  0.39436458  0.97641552  0.87242117    -0.05720
C3658       C  0.40823338  0.98009606  0.90287012    -0.33150
C3659       C  0.41670033  0.96258818  0.92438856     0.36100
C3660       C  0.41173693  0.94078544  0.91546519    -0.06080
C3661       C  0.39633500  0.93722249  0.88742749    -0.33050
C3662       C  0.38784213  0.95464395  0.86593266     0.36010
H3663       H  0.41357536  0.99650086  0.90850814     0.16380
O3664       O  0.42993934  0.96704545  0.95404140    -0.60540
H3665       H  0.39162468  0.92075906  0.88069951     0.16390
O3666       O  0.37371382  0.95016147  0.83735274    -0.60640
H3667       H  0.38217842  0.94395424  0.81665738     0.43390
H3668       H  0.42065486  0.97178829  0.97486197     0.43340
C3669       C  0.39288446  0.99570994  0.63789766    -0.05720
C3670       C  0.38946119  0.97371000  0.64830951    -0.33150
C3671       C  0.39561711  0.95732712  0.62379092     0.36100
C3672       C  0.40410289  0.96317734  0.58792926    -0.06080
C3673       C  0.40210749  0.98476743  0.57445154    -0.33050
C3674       C  0.39644774  0.00108058  0.59931081     0.36010
H3675       H  0.38633444  0.96927850  0.67788055     0.16380
O3676       O  0.39665523  0.93636216  0.63758144    -0.60540
H3677       H  0.40768793  0.98947202  0.54620074     0.16390
O3678       O  0.39851422  0.02245355  0.58764672    -0.60640
H3679       H  0.41385287  0.02593372  0.58885126     0.43390
H3680       H  0.38297885  0.92950475  0.63045757     0.43340
C3681       C  0.58788795  0.10169096  0.93707489    -0.05720
C3682       C  0.60527989  0.10775754  0.95948834    -0.33150
C3683       C  0.62135443  0.12115007  0.94449570     0.36100
C3684       C  0.62029357  0.12869454  0.90626787    -0.06080
C3685       C  0.60334087  0.12188271  0.88337272    -0.33050
C3686       C  0.58716764  0.10861567  0.89847838     0.36010
H3687       H  0.60636211  0.10231378  0.98901456     0.16380
O3688       O  0.63818393  0.12642896  0.96735440    -0.60540
H3689       H  0.60219040  0.12742332  0.85391196     0.16390
O3690       O  0.57045577  0.10313847  0.87549845    -0.60640
H3691       H  0.56014878  0.11489912  0.87844809     0.43390
H3692       H  0.63324873  0.13842669  0.98322337     0.43340
C3693       C  0.49014495  0.08287199  0.60196278    -0.05720
C3694       C  0.46808945  0.08526864  0.59905967    -0.33150
C3695       C  0.45439342  0.07578894  0.62639740     0.36100
C3696       C  0.46270520  0.06355507  0.65705682    -0.06080
C3697       C  0.48469989  0.06368879  0.66266107    -0.33050
C3698       C  0.49840750  0.07330041  0.63558307     0.36010
H3699       H  0.46133684  0.09268780  0.57362598     0.16380
O3700       O  0.43303835  0.07622710  0.62015249    -0.60540
H3701       H  0.49138332  0.05477075  0.68666997     0.16390
O3702       O  0.51977409  0.07120559  0.64048604    -0.60640
H3703       H  0.52290283  0.05619751  0.63292081     0.43390
H3704       H  0.42813834  0.08908416  0.63384059     0.43340
C3705       C  0.48858653  0.06139111  0.86845022    -0.05720
C3706       C  0.46939403  0.06692149  0.88557839    -0.33150
C3707       C  0.44981121  0.06055515  0.86956215     0.36100
C3708       C  0.44919731  0.04815572  0.83625793    -0.06080
C3709       C  0.46828817  0.04481945  0.81716281    -0.33050
C3710       C  0.48766573  0.05182985  0.83236272     0.36010
H3711       H  0.46955478  0.07383928  0.91366518     0.16380
O3712       O  0.43156423  0.06443557  0.88895474    -0.60540
H3713       H  0.46848959  0.03592560  0.79107737     0.16390
O3714       O  0.50594637  0.04633123  0.81441914    -0.60640
H3715       H  0.50949749  0.05894071  0.79737395     0.43390
H3716       H  0.42704878  0.07893526  0.87955779     0.43340
C3717       C  0.47691545  0.00525954  0.99143517    -0.05720
C3718       C  0.49122784  0.99631614  0.01759666    -0.33150
C3719       C  0.49878003  0.97564964  0.01303511     0.36100
C3720       C  0.49104083  0.96312853  0.98309051    -0.06080
C3721       C  0.47775030  0.97245421  0.95541709    -0.33050
C3722       C  0.47027445  0.99321831  0.45988365     0.36010
H3723       H  0.49779161  0.00597769  0.03995558     0.16380
O3724       O  0.51261823  0.96721110  0.03938369    -0.60540
H3725       H  0.47176977  0.96311778  0.43181961     0.16390
O3726       O  0.45778792  0.00219011  0.43175670    -0.60640
H3727       H  0.44499000  0.00731081  0.44476804     0.43390
H3728       H  0.52685026  0.97122380  0.02948932     0.43340
C3729       C  0.60400278  0.88077157  0.76406626    -0.05720
C3730       C  0.60447305  0.87754764  0.80399288    -0.33150
C3731       C  0.62000292  0.86494590  0.82182807     0.36100
C3732       C  0.63544026  0.85487031  0.79981923    -0.06080
C3733       C  0.63399417  0.85675259  0.75977292    -0.33050
C3734       C  0.61856241  0.86949127  0.74195388     0.36010
H3735       H  0.59331485  0.88561340  0.82192702     0.16380
O3736       O  0.62001613  0.86285998  0.86084018    -0.60540
H3737       H  0.64546927  0.84908594  0.74192521     0.16390
O3738       O  0.61853173  0.87145405  0.70294902    -0.60640
H3739       H  0.60889853  0.85970432  0.69425283     0.43390
H3740       H  0.62661858  0.87649905  0.86999593     0.43340
C3741       C  0.50388345  0.90364196  0.82798502    -0.05720
C3742       C  0.51162823  0.88951223  0.85635388    -0.33150
C3743       C  0.49779002  0.87946296  0.88287130     0.36100
C3744       C  0.47587098  0.88353059  0.88125664    -0.06080
C3745       C  0.46794319  0.89497603  0.84952170    -0.33050
C3746       C  0.48176004  0.90518208  0.82319906     0.36010
H3747       H  0.52849526  0.88783823  0.86019023     0.16380
O3748       O  0.50609226  0.86767903  0.91279129    -0.60540
H3749       H  0.45122169  0.89821369  0.84744604     0.16390
O3750       O  0.47353907  0.91766270  0.79399451    -0.60640
H3751       H  0.46871977  0.93112659  0.80595145     0.43390
H3752       H  0.50472726  0.85230943  0.90526796     0.43340
C3753       C  0.51881200  0.91629004  0.65203065    -0.05720
C3754       C  0.49948026  0.91992148  0.67003750    -0.33150
C3755       C  0.48030649  0.91369794  0.65310774     0.36100
C3756       C  0.48004831  0.90446111  0.61673951    -0.06080
C3757       C  0.49941491  0.89855618  0.60081155    -0.33050
C3758       C  0.51871111  0.90424607  0.61836252     0.36010
H3759       H  0.49906743  0.92858256  0.69642426     0.16380
O3760       O  0.46176408  0.91963467  0.66964626    -0.60540
H3761       H  0.49970954  0.89199564  0.57245323     0.16390
O3762       O  0.53726566  0.90025817  0.60000517    -0.60640
H3763       H  0.54144262  0.88564123  0.60938338     0.43390
H3764       H  0.45765095  0.90718931  0.68666211     0.43340
C3765       C  0.50414928  0.99089782  0.73393524    -0.05720
C3766       C  0.49512751  0.99509545  0.76943638    -0.33150
C3767       C  0.47571183  0.98604203  0.77966434     0.36100
C3768       C  0.46427487  0.97369465  0.75310377    -0.06080
C3769       C  0.47341362  0.96917313  0.71796217    -0.33050
C3770       C  0.49280519  0.97824388  0.70767149     0.36010
H3771       H  0.50384375  0.00427024  0.79042999     0.16380
O3772       O  0.46771343  0.99030987  0.81493911    -0.60540
H3773       H  0.46465379  0.96003740  0.69697803     0.16390
O3774       O  0.50077778  0.97390103  0.67244934    -0.60640
H3775       H  0.49194565  0.98218777  0.65407602     0.43390
H3776       H  0.47191561  0.97785608  0.83153299     0.43340
C3777       C  0.54939028  0.02278670  0.57306359    -0.05720
C3778       C  0.57104090  0.01773681  0.57075328    -0.33150
C3779       C  0.57935809  0.99951312  0.59052551     0.36100
C3780       C  0.56589071  0.98518360  0.61126762    -0.06080
C3781       C  0.54426795  0.98968954  0.61187724    -0.33050
C3782       C  0.53607730  0.00853120  0.59449050     0.36010
H3783       H  0.58173746  0.02836850  0.55468919     0.16380
O3784       O  0.60070118  0.99626405  0.59036431    -0.60540
H3785       H  0.53375665  0.97942022  0.62878816     0.16390
O3786       O  0.51565855  0.01419658  0.60222897    -0.60640
H3787       H  0.50684223  0.00078007  0.60086821     0.43390
H3788       H  0.60637053  0.00494200  0.61163326     0.43340
C3789       C  0.56287593  0.99985744  0.90176463    -0.05720
C3790       C  0.57333351  0.00643912  0.86811687    -0.33150
C3791       C  0.58074335  0.99081307  0.84316225     0.36100
C3792       C  0.57644879  0.96857680  0.85102928    -0.06080
C3793       C  0.57135241  0.96234820  0.88861431    -0.33050
C3794       C  0.56387776  0.97780677  0.91371248     0.36010
H3795       H  0.57339855  0.02334668  0.85884947     0.16380
O3796       O  0.58714560  0.99744846  0.80737069    -0.60540
H3797       H  0.56889631  0.94528971  0.89591842     0.16390
O3798       O  0.55577251  0.97099309  0.94835218    -0.60640
H3799       H  0.54212383  0.96360891  0.94259707     0.43390
H3800       H  0.60271741  0.99617160  0.80769590     0.43340
C3801       C  0.13268195  0.34626999  0.57099802    -0.05720
C3802       C  0.13264431  0.35216628  0.53200686    -0.33150
C3803       C  0.11661058  0.36464745  0.51601452     0.36100
C3804       C  0.09991587  0.37159216  0.53894145    -0.06080
C3805       C  0.09983544  0.36568984  0.57796588    -0.33050
C3806       C  0.11604507  0.35325371  0.59406574     0.36010
H3807       H  0.14542935  0.34755106  0.51361101     0.16380
O3808       O  0.11796100  0.37063981  0.97816535    -0.60540
H3809       H  0.08709211  0.37061663  0.59618119     0.16390
O3810       O  0.11522724  0.34779776  0.63216762    -0.60640
H3811       H  0.12098934  0.36067926  0.64534910     0.43390
H3812       H  0.11266065  0.35786224  0.96412955     0.43340
C3813       C  0.37409511  0.34912991  0.89647847    -0.05720
C3814       C  0.38464606  0.36486312  0.87348191    -0.33150
C3815       C  0.39758109  0.38095793  0.88968333     0.36100
C3816       C  0.40005205  0.38166986  0.92969344    -0.06080
C3817       C  0.39090561  0.36490167  0.95228029    -0.33050
C3818       C  0.37811936  0.34877767  0.93615889     0.36010
H3819       H  0.38189185  0.36554413  0.84300477     0.16380
O3820       O  0.40629667  0.39685807  0.86628150    -0.60540
H3821       H  0.39307947  0.36462927  0.98292125     0.16390
O3822       O  0.36933490  0.33295199  0.95970071    -0.60640
H3823       H  0.35749447  0.34000055  0.97274486     0.43390
H3824       H  0.41998999  0.39102642  0.85802876     0.43340
C3825       C  0.27303168  0.35553615  0.75428475    -0.05720
C3826       C  0.25232143  0.35896811  0.76777319    -0.33150
C3827       C  0.23545359  0.36138116  0.74249562     0.36100
C3828       C  0.23938234  0.36124251  0.70329504    -0.06080
C3829       C  0.26061700  0.36354803  0.69068076    -0.33050
C3830       C  0.27745108  0.36032506  0.71595516     0.36010
H3831       H  0.24870532  0.35699409  0.79785004     0.16380
O3832       O  0.21523720  0.36080094  0.75636515    -0.60540
H3833       H  0.26424016  0.36488606  0.66054117     0.16390
O3834       O  0.29758182  0.35904631  0.70206523    -0.60640
H3835       H  0.30368721  0.37390331  0.70417091     0.43390
H3836       H  0.21118414  0.37622892  0.75773157     0.43340
C3837       C  0.23341644  0.33501287  0.49622961    -0.05720
C3838       C  0.23323150  0.33397861  0.95646966    -0.33150
C3839       C  0.25228205  0.33506117  0.93627460     0.36100
C3840       C  0.27154577  0.33380662  0.95642905    -0.06080
C3841       C  0.27161886  0.33912864  0.99497882    -0.33050
C3842       C  0.25239210  0.34141590  0.51419972     0.36010
H3843       H  0.21870984  0.33008094  0.94157075     0.16380
O3844       O  0.25186653  0.33365170  0.89738215    -0.60540
H3845       H  0.28628069  0.33944501  0.01087505     0.16390
O3846       O  0.25256135  0.34623886  0.55209357    -0.60640
H3847       H  0.24830444  0.36161844  0.55299843     0.43390
H3848       H  0.25615740  0.34830224  0.88756717     0.43340
C3849       C  0.13008038  0.15221607  0.82907765    -0.05720
C3850       C  0.12720479  0.15383117  0.78918157    -0.33150
C3851       C  0.11133774  0.14173254  0.77046262     0.36100
C3852       C  0.09773585  0.12743634  0.79136676    -0.06080
C3853       C  0.09967584  0.12697751  0.83141568    -0.33050
C3854       C  0.11552746  0.13901840  0.85013672     0.36010
H3855       H  0.13798416  0.16372971  0.77191859     0.16380
O3856       O  0.11035119  0.14293554  0.73144218    -0.60540
H3857       H  0.08934570  0.11648910  0.84853584     0.16390
O3858       O  0.11683413  0.13730485  0.88911026    -0.60640
H3859       H  0.12407137  0.12342196  0.89452469     0.43390
H3860       H  0.10090563  0.15521917  0.72547033     0.43340
C3861       C  0.19578680  0.27764379  0.70362445    -0.05720
C3862       C  0.18029901  0.27304976  0.73189154    -0.33150
C3863       C  0.18023736  0.25328907  0.75388288     0.36100
C3864       C  0.19546244  0.23731016  0.74724945    -0.06080
C3865       C  0.20984198  0.24151008  0.71711360    -0.33050
C3866       C  0.21043409  0.26127642  0.69635178     0.36010
H3867       H  0.16873260  0.28518672  0.73809124     0.16380
O3868       O  0.16618317  0.25052178  0.78330188    -0.60540
H3869       H  0.22165784  0.22966590  0.71058241     0.16390
O3870       O  0.22547265  0.26423780  0.66853498    -0.60640
H3871       H  0.23851739  0.26873567  0.68213361     0.43390
H3872       H  0.15369894  0.24315736  0.77200590     0.43340
C3873       C  0.19124652  0.22006225  0.95330091    -0.05720
C3874       C  0.17172504  0.23003258  0.96070277    -0.33150
C3875       C  0.17064618  0.24767500  0.98585384     0.36100
C3876       C  0.18935786  0.25604629  0.00197032    -0.06080
C3877       C  0.20864100  0.24744329  0.99087114    -0.33050
C3878       C  0.20951578  0.22861548  0.97055296     0.36010
H3879       H  0.15728384  0.22354301  0.94854650     0.16380
O3880       O  0.15143784  0.25555701  0.99601448    -0.60540
H3881       H  0.22343498  0.25376735  0.00208790     0.16390
O3882       O  0.22822101  0.21781764  0.97040216    -0.60640
H3883       H  0.23185453  0.21471649  0.99746598     0.43390
H3884       H  0.14889778  0.26784673  0.97790653     0.43340
C3885       C  0.26275723  0.21579377  0.86584294    -0.05720
C3886       C  0.25556344  0.22801232  0.89593914    -0.33150
C3887       C  0.24948161  0.24927273  0.89007975     0.36100
C3888       C  0.25401101  0.26003079  0.85514629    -0.06080
C3889       C  0.26274192  0.24833008  0.82531015    -0.33050
C3890       C  0.26692185  0.22629049  0.83026734     0.36010
H3891       H  0.25360611  0.22054734  0.92366589     0.16380
O3892       O  0.24021339  0.25980047  0.91953654    -0.60540
H3893       H  0.26684420  0.25633606  0.79842289     0.16390
O3894       O  0.27409197  0.21513929  0.79961059    -0.60640
H3895       H  0.28616104  0.20655130  0.80908957     0.43390
H3896       H  0.22515812  0.26109237  0.91215864     0.43340
C3897       C  0.34385977  0.11992314  0.68154218    -0.05720
C3898       C  0.34328182  0.11762860  0.72172527    -0.33150
C3899       C  0.35428018  0.10102645  0.74117095     0.36100
C3900       C  0.36619946  0.08620812  0.72058403    -0.06080
C3901       C  0.36639530  0.08840768  0.68040728    -0.33050
C3902       C  0.35546796  0.10483207  0.66107854     0.36010
H3903       H  0.33443318  0.12890408  0.73834975     0.16380
O3904       O  0.35334508  0.09963715  0.78017933    -0.60540
H3905       H  0.37523350  0.07733864  0.66333540     0.16390
O3906       O  0.35703272  0.10638213  0.62212215    -0.60640
H3907       H  0.34608246  0.09620127  0.61244062     0.43390
H3908       H  0.36500755  0.10919016  0.78914676     0.43340
C3909       C  0.32190688  0.22887368  0.73353987    -0.05720
C3910       C  0.32147829  0.22998429  0.77328806    -0.33150
C3911       C  0.32335080  0.25000469  0.79155859     0.36100
C3912       C  0.32508633  0.26974877  0.77010624    -0.06080
C3913       C  0.32854396  0.26832886  0.73068105    -0.33050
C3914       C  0.32751346  0.24802655  0.71261608     0.36010
H3915       H  0.31878133  0.21531278  0.79022562     0.16380
O3916       O  0.32266951  0.24994441  0.83049055    -0.60540
H3917       H  0.33076058  0.28304282  0.71349807     0.16390
O3918       O  0.33035498  0.24735014  0.67399062    -0.60640
H3919       H  0.34534471  0.24350735  0.67058535     0.43390
H3920       H  0.33761628  0.25101535  0.83877941     0.43340
C3921       C  0.33541475  0.25153914  0.95764711    -0.05720
C3922       C  0.34713248  0.25689622  0.48996539    -0.33150
C3923       C  0.35141475  0.24081923  0.51772781     0.36100
C3924       C  0.34381765  0.21929007  0.51298152    -0.06080
C3925       C  0.33623781  0.21333179  0.97723019    -0.33050
C3926       C  0.33186052  0.22937392  0.94957504     0.36010
H3927       H  0.35049949  0.27376077  0.49611040     0.16380
O3928       O  0.36013914  0.24690888  0.55171093    -0.60540
H3929       H  0.33088514  0.19679941  0.97254866     0.16390
O3930       O  0.32228193  0.22349398  0.91611575    -0.60640
H3931       H  0.30761770  0.21908073  0.92305940     0.43390
H3932       H  0.37529281  0.24338249  0.54973281     0.43340
C3933       C  0.28492419  0.30886040  0.60384882    -0.05720
C3934       C  0.29516079  0.29850530  0.57407270    -0.33150
C3935       C  0.29908335  0.27639452  0.57960958     0.36100
C3936       C  0.29659831  0.26725663  0.61663004    -0.06080
C3937       C  0.29594764  0.28134772  0.64763625    -0.33050
C3938       C  0.29173793  0.30322963  0.64068989     0.36010
H3939       H  0.29363280  0.30471552  0.54507518     0.16380
O3940       O  0.30204472  0.26369487  0.54865250    -0.60540
H3941       H  0.29600502  0.27521987  0.67677966     0.16390
O3942       O  0.28832024  0.31677737  0.67045906    -0.60640
H3943       H  0.27655959  0.31015293  0.68563487     0.43390
H3944       H  0.31678474  0.26679937  0.54072111     0.43340
C3945       C  0.23539985  0.15394663  0.98861530    -0.05720
C3946       C  0.23378502  0.17004644  0.51615984    -0.33150
C3947       C  0.25111074  0.17560773  0.53984257     0.36100
C3948       C  0.27051379  0.16462756  0.53731189    -0.06080
C3949       C  0.27143314  0.14725123  0.01216241    -0.33050
C3950       C  0.25435509  0.14207620  0.98790496     0.36010
H3951       H  0.21950935  0.17938078  0.51763257     0.16380
O3952       O  0.24904355  0.19228198  0.56464340    -0.60540
H3953       H  0.28589796  0.13828375  0.00981526     0.16390
O3954       O  0.25682310  0.12599179  0.96205539    -0.60640
H3955       H  0.25078566  0.11268993  0.97461451     0.43390
H3956       H  0.24279039  0.18548742  0.58802192     0.43340
C3957       C  0.25092957  0.15031660  0.71222568    -0.05720
C3958       C  0.23018684  0.15143260  0.69760938    -0.33150
C3959       C  0.21316494  0.14496285  0.72080289     0.36100
C3960       C  0.21760375  0.14021799  0.75915828    -0.06080
C3961       C  0.23698346  0.12992957  0.76641502    -0.33050
C3962       C  0.25451339  0.13674096  0.74437063     0.36010
H3963       H  0.22705393  0.16010211  0.67100265     0.16380
O3964       O  0.19315929  0.15058747  0.71003746    -0.60540
H3965       H  0.23991061  0.12286891  0.79446899     0.16390
O3966       O  0.27450596  0.13357431  0.75815902    -0.60640
H3967       H  0.27995339  0.12125527  0.74368205     0.43390
H3968       H  0.18584959  0.13664758  0.70452524     0.43340
loop_ 
_geom_bond_atom_site_label_1 
_geom_bond_atom_site_label_2 
_geom_bond_distance 
_geom_bond_site_symmetry_2 
_ccdc_geom_bond_type 
O1           Ni7   1.972       .  S
O1           C22   1.291       .  A
O2          Ni25   1.881       .  S
O2           C11   1.266       .  A
O3           Ni7   1.885       .  S
O3          Ni25   1.875       .  S
O3          Ni19   1.896       .  S
O3           H26   0.967       .  S
C4           O21   1.284       .  A
C4           O13   1.278       .  A
C4         C1973   1.474       .  S
O5          Ni24   1.913       .  S
O5           C11   1.272       .  A
O6          Ni24   1.913       .  S
O6            C8   1.265       .  A
Ni7          O10   1.975       .  S
Ni7          O12   1.943       .  S
C8           O18   1.277       .  A
C8         C1925   1.499       .  S
O9          Ni25   1.875       .  S
O9           C15   1.266       .  A
O10          C15   1.288       .  A
C11        C1952   1.464       .  S
O12          C14   1.279       .  A
O13         Ni24   1.896       .  S
C14          O20   1.280       .  A
C14        C1964   1.513       .  S
C15        C1940   1.477       .  S
H16          O17   0.964       .  S
O17         Ni25   1.878       .  S
O17         Ni19   1.873       .  S
O17         Ni24   1.879       .  S
O18         Ni19   1.971       .  S
Ni19         O23   1.888       .  S
Ni19         O21   1.941       .  S
O20         Ni25   1.963       .  S
C22          O23   1.273       .  A
C22        C1913   1.497       .  S
O27         Ni33   1.878       .  S
O27          C48   1.251       .  A
O28         Ni51   1.921       .  S
O28          C37   1.281       .  A
O29         Ni33   1.902       .  S
O29         Ni51   1.893       .  S
O29         Ni45   1.929       .  S
O29          H52   0.966       .  S
C30          O47   1.254       .  A
C30          O39   1.285       .  A
C30        C1961   1.511       .  S
O31         Ni50   1.961       .  S
O31          C37   1.288       .  A
O32         Ni50   1.910       .  S
O32          C34   1.274       .  A
Ni33         O36   1.901       .  S
Ni33         O38   1.864       .  S
C34          O44   1.288       .  A
C34        C1889   1.492       .  S
O35         Ni51   1.994       .  S
O35          C41   1.300       .  A
O36          C41   1.276       .  A
C37        C1865   1.511       .  S
O38          C40   1.262       .  A
O39         Ni50   2.013       .  S
C40          O46   1.267       .  A
C40        C1976   1.471       .  S
C41        C1880   1.517       .  S
H42          O43   0.966       .  S
O43         Ni51   1.963       .  S
O43         Ni45   1.884       .  S
O43         Ni50   1.919       .  S
O44         Ni45   1.958       .  S
Ni45         O49   1.918       .  S
Ni45         O47   1.891       .  S
O46         Ni51   1.935       .  S
C48          O49   1.255       .  A
C48        C1901   1.471       .  S
O53         Ni59   1.965       .  S
O53          C74   1.288       .  A
O54         Ni77   1.913       .  S
O54          C63   1.254       .  A
O55         Ni59   1.900       .  S
O55         Ni77   1.892       .  S
O55         Ni71   1.910       .  S
O55          H78   0.966       .  S
C56          O73   1.290       .  A
C56          O65   1.275       .  A
C56        C1937   1.476       .  S
O57         Ni76   1.878       .  S
O57          C63   1.255       .  A
O58         Ni76   1.897       .  S
O58          C60   1.261       .  A
Ni59         O62   1.982       .  S
Ni59         O64   1.951       .  S
C60          O70   1.267       .  A
C60        C1856   1.476       .  S
O61         Ni77   1.840       .  S
O61          C67   1.257       .  A
O62          C67   1.289       .  A
C63        C1904   1.464       .  S
O64          C66   1.277       .  A
O65         Ni76   1.883       .  S
C66          O72   1.275       .  A
C66        C1928   1.507       .  S
C67        C1841   1.483       .  S
H68          O69   0.961       .  S
O69         Ni77   1.912       .  S
O69         Ni71   1.876       .  S
O69         Ni76   1.891       .  S
O70         Ni71   1.946       .  S
Ni71         O75   1.883       .  S
Ni71         O73   1.961       .  S
O72         Ni77   1.947       .  S
C74          O75   1.271       .  A
C74        C1829   1.491       .  S
O79         Ni85   1.965       .  S
O79         C100   1.293       .  A
O80        Ni103   1.889       .  S
O80          C89   1.267       .  A
O81         Ni85   1.876       .  S
O81        Ni103   1.860       .  S
O81         Ni97   1.907       .  S
O81         H104   0.967       .  S
C82          O99   1.289       .  A
C82          O91   1.265       .  A
C82        C3876   1.482       .  S
O83        Ni102   1.916       .  S
O83          C89   1.271       .  A
O84        Ni102   1.921       .  S
O84          C86   1.268       .  A
Ni85         O88   1.994       .  S
Ni85         O90   1.939       .  S
C86          O96   1.269       .  A
C86        C1853   1.475   1_554  S
O87        Ni103   1.854       .  S
O87          C93   1.256       .  A
O88          C93   1.293       .  A
C89        C1949   1.478       .  S
O90          C92   1.276       .  A
O91        Ni102   1.888       .  S
C92          O98   1.284       .  A
C92        C1877   1.515       .  S
C93        C1844   1.485       .  S
H94          O95   0.963       .  S
O95        Ni103   1.868       .  S
O95         Ni97   1.888       .  S
O95        Ni102   1.854       .  S
O96         Ni97   1.941       .  S
Ni97        O101   1.879       .  S
Ni97         O99   1.992       .  S
O98        Ni103   1.971       .  S
C100        O101   1.280       .  A
C100       C1817   1.485       .  S
O105       Ni111   1.961       .  S
O105        C126   1.288       .  A
O106       Ni129   1.906       .  S
O106        C115   1.255       .  A
O107       Ni111   1.915       .  S
O107       Ni129   1.877       .  S
O107       Ni123   1.943       .  S
O107        H130   0.966       .  S
C108        O125   1.294       .  A
C108        O117   1.280       .  A
C108       C1757   1.486       .  S
O109       Ni128   1.889       .  S
O109        C115   1.258       .  A
O110       Ni128   1.868       .  S
O110        C112   1.259       .  A
Ni111       O114   2.002       .  S
Ni111       O116   1.913       .  S
C112        O122   1.275       .  A
C112       C1808   1.467       .  S
O113       Ni129   1.884       .  S
O113        C119   1.253       .  A
O114        C119   1.284       .  A
C115       C1781   1.459       .  S
O116        C118   1.274       .  A
O117       Ni128   1.901       .  S
C118        O124   1.288       .  A
C118       C1769   1.490       .  S
C119       C1796   1.489       .  S
H120        O121   0.962       .  S
O121       Ni129   1.918       .  S
O121       Ni123   1.862       .  S
O121       Ni128   1.870       .  S
O122       Ni123   1.954       .  S
Ni123       O127   1.892       .  S
Ni123       O125   1.967       .  S
O124       Ni129   1.979       .  S
C126        O127   1.275       .  A
C126       C1745   1.494       .  S
O131       Ni137   1.901       .  S
O131        C152   1.258       .  A
O132       Ni155   1.882       .  S
O132        C141   1.274       .  A
O133       Ni137   1.859       .  S
O133       Ni155   1.848       .  S
O133      Ni2133   1.929       .  S
O133        H156   0.964       .  S
C134        O151   1.264       .  A
C134        O143   1.285       .  A
C134       C1709   1.487       .  S
O135       Ni154   1.947   1_556  S
O135       C2125   1.286       .  A
O136       Ni154   1.923       .  S
O136        C138   1.274       .  A
Ni137       O140   1.898       .  S
Ni137       O142   1.877       .  S
C138        O148   1.285       .  A
C138       C1793   1.505       .  S
O139       Ni155   1.976       .  S
O139        C145   1.297       .  A
O140        C145   1.283       .  A
C141       O2119   1.286       .  A
C141       C1697   1.475       .  S
O142        C144   1.248       .  A
O143       Ni154   1.978       .  S
C144        O150   1.278       .  A
C144       C1721   1.485       .  S
C145       C1805   1.485   1_545  S
H146        O147   0.967       .  S
O147       Ni155   1.925       .  S
O147      Ni2133   1.874       .  S
O147      Ni2138   1.894       .  S
O148       Ni149   1.973       .  S
Ni149       O153   1.902       .  S
Ni149       O151   1.885       .  S
Ni149      O2117   1.929   1_554  S
Ni149      O2131   1.874   1_554  S
O150       Ni155   1.987       .  S
C152       O2137   1.262       .  A
C152       C1733   1.445       .  S
O153       C2136   1.262   1_554  A
Ni154      O2131   1.894   1_554  S
O157       Ni163   1.956       .  S
O157       C2162   1.289       .  A
O158       Ni181   1.894       .  S
O158        C167   1.259       .  A
O159       Ni163   1.900       .  S
O159       Ni181   1.873       .  S
O159      Ni2159   1.926       .  S
O159        H182   0.967       .  S
C160        O177   1.296       .  A
C160        O169   1.282       .  A
C160       C1688   1.480       .  S
O161       Ni180   1.897       .  S
O161       C2151   1.261   1_554  A
O162       Ni180   1.880       .  S
O162        C164   1.255       .  A
Ni163       O166   1.988       .  S
Ni163       O168   1.930       .  S
C164        O174   1.280       .  A
C164       C1772   1.479       .  S
O165       Ni181   1.877       .  S
O165        C171   1.258       .  A
O166        C171   1.286       .  A
C167       O2145   1.261       .  A
C167       C1736   1.446       .  S
O168        C170   1.276       .  A
O169       Ni180   1.896       .  S
C170        O176   1.286       .  A
C170       C1676   1.508       .  S
C171       C1760   1.484       .  S
H172        O173   0.958   1_556  S
O173       Ni175   1.850       .  S
O173       Ni180   1.855       .  S
O173      Ni2165   1.915   1_554  S
O174       Ni175   1.975       .  S
Ni175       O179   1.897       .  S
Ni175       O177   1.969       .  S
Ni175      O2143   1.926   1_554  S
O176       Ni181   1.982       .  S
C178        O179   1.278       .  A
C178       O2141   1.289   1_554  A
C178       C1661   1.492       .  S
Ni181      O2157   1.915       .  S
O183       Ni189   1.892   1_565  S
O183        C204   1.258       .  A
O184       Ni207   1.872       .  S
O184        C193   1.271       .  A
O185       Ni189   1.872       .  S
O185       Ni207   1.858       .  S
O185       Ni201   1.917       .  S
O185        H208   0.960       .  S
C186        O203   1.251       .  A
C186        O195   1.292   1_565  A
C186       C1673   1.502       .  S
O187       Ni206   1.988       .  S
O187        C193   1.295       .  A
O188       Ni206   1.920       .  S
O188        C190   1.275       .  A
Ni189       O192   1.903       .  S
Ni189       O194   1.877       .  S
C190        O200   1.288       .  A
C190       C1724   1.498       .  S
O191       Ni207   1.963       .  S
O191        C197   1.292       .  A
O192        C197   1.280       .  A
C193       C1916   1.500       .  S
O194        C196   1.260       .  A
O195       Ni206   2.020       .  S
C196        O202   1.270       .  A
C196       C1685   1.464   1_545  S
C197       C1712   1.483       .  S
H198        O199   0.966       .  S
O199       Ni207   1.931       .  S
O199       Ni201   1.875       .  S
O199       Ni206   1.908       .  S
O200       Ni201   1.979       .  S
Ni201       O205   1.902   1_545  S
Ni201       O203   1.869   1_545  S
O202       Ni207   1.944       .  S
C204        O205   1.255       .  A
C204       C1784   1.455       .  S
O209       Ni215   1.960       .  S
O209        C230   1.290       .  A
O210       Ni233   1.900       .  S
O210        C219   1.253       .  A
O211       Ni215   1.892       .  S
O211       Ni233   1.868       .  S
O211       Ni227   1.926       .  S
O211        H234   0.966       .  S
C212        O229   1.303       .  A
C212        O221   1.277       .  A
C212       C1601   1.491   1_655  S
O213       Ni232   1.895       .  S
O213        C219   1.254       .  A
O214       Ni232   1.893       .  S
O214        C216   1.258       .  A
Ni215       O218   2.001       .  S
Ni215       O220   1.925       .  S
C216        O226   1.266       .  A
C216       C1649   1.473       .  S
O217       Ni233   1.854       .  S
O217        C223   1.253       .  A
O218        C223   1.290       .  A
C219       C1625   1.433   1_565  S
O220        C222   1.272       .  A
O221       Ni232   1.895       .  S
C222        O228   1.280       .  A
C222       C1616   1.492       .  S
C223       C1640   1.487       .  S
H224        O225   0.965       .  S
O225       Ni233   1.927       .  S
O225       Ni227   1.881       .  S
O225       Ni232   1.892       .  S
O226       Ni227   1.949       .  S
Ni227       O231   1.902       .  S
Ni227       O229   2.000       .  S
O228       Ni233   1.963       .  S
C230        O231   1.281       .  A
C230       C1589   1.496       .  S
O235       Ni241   1.962       .  S
O235       C2240   1.289       .  A
O236       Ni259   1.895       .  S
O236        C245   1.250   1_545  A
O237       Ni241   1.899       .  S
O237       Ni259   1.872       .  S
O237      Ni2237   1.931       .  S
O237        H260   0.966       .  S
C238        O255   1.299       .  A
C238        O247   1.270       .  A
C238       C1553   1.494       .  S
O239       Ni258   1.877       .  S
O239       C2229   1.260   1_545  A
O240       Ni258   1.905       .  S
O240        C242   1.263       .  A
Ni241       O244   1.988       .  S
Ni241       O246   1.931       .  S
C242        O252   1.267       .  A
C242       C1652   1.474       .  S
O243       Ni259   1.870       .  S
O243        C249   1.255       .  A
O244        C249   1.287       .  A
C245       O2223   1.260   1_565  A
C245       C1580   1.461       .  S
O246        C248   1.277       .  A
O247       Ni258   1.884       .  S
C248        O254   1.284       .  A
C248       C1565   1.506       .  S
C249       C1637   1.494   1_545  S
H250        O251   0.962       .  S
O251       Ni253   1.885       .  S
O251       Ni258   1.908       .  S
O251      Ni2243   1.942   1_554  S
O252       Ni253   1.936       .  S
Ni253       O257   1.896       .  S
Ni253       O255   1.999       .  S
Ni253      O2221   1.931   1_554  S
O254       Ni259   1.967       .  S
C256        O257   1.279       .  A
C256       O2219   1.289   1_554  A
C256       C1541   1.496       .  S
Ni259      O2235   1.942       .  S
O261       Ni267   1.883   1_545  S
O261        C282   1.258       .  A
O262       Ni285   1.891       .  S
O262        C271   1.277       .  A
O263       Ni267   1.900       .  S
O263       Ni285   1.882       .  S
O263      Ni2263   1.934       .  S
O263        H286   0.962       .  S
C264        O281   1.252       .  A
C264        O273   1.287       .  A
C264       C1532   1.494       .  S
O265       Ni284   1.966       .  S
O265       C2255   1.290   1_554  A
O266       Ni284   1.923       .  S
O266        C268   1.275       .  A
Ni267       O270   1.887       .  S
Ni267       O272   1.887       .  S
C268        O278   1.286       .  A
C268       C1604   1.505       .  S
O269       Ni285   1.989       .  S
O269        C275   1.296       .  A
O270        C275   1.270       .  A
C271       O2249   1.290       .  A
C271       C1505   1.493       .  S
O272        C274   1.263       .  A
O273       Ni284   1.998       .  S
C274        O280   1.269       .  A
C274       C1520   1.467       .  S
C275       C1613   1.489       .  S
H276        O277   0.966       .  S
O277       Ni285   1.932       .  S
O277      Ni2263   1.872       .  S
O277      Ni2268   1.906       .  S
O278       Ni279   1.978       .  S
Ni279       O283   1.898   1_565  S
Ni279       O281   1.868       .  S
Ni279      O2247   1.934   1_554  S
Ni279      O2261   1.872   1_554  S
O280       Ni285   1.939       .  S
C282       O2267   1.250       .  A
C282       C1577   1.460       .  S
O283       C2266   1.250   1_554  A
Ni284      O2261   1.906   1_554  S
O287       Ni293   1.893       .  S
O287        C308   1.254       .  A
O288       Ni311   1.919       .  S
O288        C297   1.282       .  A
O289       Ni293   1.867       .  S
O289       Ni311   1.873       .  S
O289       Ni305   1.916       .  S
O289        H312   0.967       .  S
C290        O307   1.256       .  A
C290        O299   1.280       .  A
C290       C1529   1.486       .  S
O291       Ni310   1.955       .  S
O291        C297   1.290       .  A
O292       Ni310   1.989       .  S
O292        C294   1.287       .  A
Ni293       O296   1.919       .  S
Ni293       O298   1.859       .  S
C294        O304   1.262       .  A
C294       C1556   1.500       .  S
O295       Ni311   1.976       .  S
O295        C301   1.302       .  A
O296        C301   1.284       .  A
C297       C1868   1.508       .  S
O298        C300   1.256       .  A
O299       Ni310   1.972       .  S
C300        O306   1.274       .  A
C300       C1517   1.475       .  S
C301       C1568   1.492       .  S
H302        O303   0.966       .  S
O303       Ni311   1.938       .  S
O303       Ni305   1.895       .  S
O303       Ni310   1.897       .  S
O304       Ni305   1.893       .  S
Ni305       O309   1.898       .  S
Ni305       O307   1.881       .  S
O306       Ni311   1.957       .  S
C308        O309   1.254       .  A
C308       C1628   1.444       .  S
O313       Ni319   1.954       .  S
O313        C334   1.288       .  A
O314       Ni337   1.873       .  S
O314        C323   1.270       .  A
O315       Ni319   1.885       .  S
O315       Ni337   1.866       .  S
O315       Ni331   1.920       .  S
O315        H338   0.967       .  S
C316        O333   1.289       .  A
C316        O325   1.267       .  A
C316       C1460   1.472       .  S
O317       Ni336   1.886       .  S
O317        C323   1.262       .  A
O318       Ni336   1.936       .  S
O318        C320   1.277       .  A
Ni319       O322   1.980       .  S
Ni319       O324   1.926       .  S
C320        O330   1.281       .  A
C320       C1481   1.501       .  S
O321       Ni337   1.904       .  S
O321        C327   1.271       .  A
O322        C327   1.288       .  A
C323       C1448   1.461       .  S
O324        C326   1.273       .  A
O325       Ni336   1.893       .  S
C326        O332   1.277       .  A
C326       C1469   1.486       .  S
C327       C1496   1.501       .  S
H328        O329   0.958       .  S
O329       Ni337   1.896       .  S
O329       Ni331   1.856       .  S
O329       Ni336   1.878       .  S
O330       Ni331   1.955       .  S
Ni331       O335   1.877       .  S
Ni331       O333   1.969       .  S
O332       Ni337   1.944       .  S
C334        O335   1.275       .  A
C334       C1700   1.476       .  S
O339       Ni345   1.956       .  S
O339        C360   1.289       .  A
O340       Ni363   1.873       .  S
O340        C349   1.265       .  A
O341       Ni345   1.894       .  S
O341       Ni363   1.877       .  S
O341       Ni357   1.902       .  S
O341        H364   0.967       .  S
C342        O359   1.269       .  A
C342        O351   1.252       .  A
C342       C3396   1.475   1_554  S
O343       Ni362   1.906       .  S
O343        C349   1.269       .  A
O344       Ni362   1.913       .  S
O344        C346   1.287       .  A
Ni345       O348   2.005       .  S
Ni345       O350   1.942       .  S
C346        O356   1.305       .  A
C346       C1484   1.509       .  S
O347       Ni363   1.884       .  S
O347        C353   1.268       .  A
O348        C353   1.295       .  A
C349       C1433   1.483       .  S
O350        C352   1.266       .  A
O351       Ni362   1.883       .  S
C352        O358   1.260       .  A
C352       C1421   1.483       .  S
C353       C1493   1.503       .  S
H354        O355   0.960       .  S
O355       Ni363   1.919       .  S
O355       Ni357   1.886       .  S
O355       Ni362   1.878       .  S
O356       Ni357   2.010       .  S
Ni357       O361   1.904       .  S
Ni357       O359   1.957       .  S
O358       Ni363   1.916       .  S
C360        O361   1.280       .  A
C360       C1544   1.491       .  S
O365       Ni371   1.899       .  S
O365        C386   1.255       .  A
O366       Ni389   1.878       .  S
O366        C375   1.269       .  A
O367       Ni371   1.908       .  S
O367       Ni389   1.884       .  S
O367       Ni383   1.953       .  S
O367        H390   0.960       .  S
C368        O385   1.261       .  A
C368        O377   1.286       .  A
C368       C3369   1.500   1_554  S
O369       Ni388   1.963       .  S
O369        C375   1.287       .  A
O370       Ni388   1.932       .  S
O370        C372   1.274       .  A
Ni371       O374   1.881       .  S
Ni371       O376   1.889       .  S
C372        O382   1.271       .  A
C372       C1457   1.485       .  S
O373       Ni389   1.944       .  S
O373        C379   1.270       .  A
O374        C379   1.256       .  A
C375       C1373   1.486       .  S
O376        C378   1.268       .  A
O377       Ni388   1.995       .  S
C378        O384   1.289       .  A
C378       C1400   1.477       .  S
C379       C1472   1.462       .  S
H380        O381   0.967       .  S
O381       Ni389   1.922       .  S
O381       Ni383   1.879       .  S
O381       Ni388   1.917       .  S
O382       Ni383   1.928       .  S
Ni383       O387   1.894       .  S
Ni383       O385   1.895       .  S
O384       Ni389   1.982       .  S
C386        O387   1.253       .  A
C386       C1436   1.472       .  S
O391       Ni397   1.896       .  S
O391        C412   1.270       .  A
O392       Ni415   1.884       .  S
O392        C401   1.271       .  A
O393       Ni397   1.898       .  S
O393       Ni415   1.885       .  S
O393       Ni409   1.918       .  S
O393        H416   0.966       .  S
C394        O411   1.279       .  A
C394        O403   1.287       .  A
C394       C1388   1.508       .  S
O395       Ni414   1.948       .  S
O395        C401   1.283       .  A
O396       Ni414   1.937       .  S
O396        C398   1.270       .  A
Ni397       O400   1.886       .  S
Ni397       O402   1.919       .  S
C398        O408   1.258       .  A
C398       C1409   1.477       .  S
O399       Ni415   1.965       .  S
O399        C405   1.271       .  A
O400        C405   1.250       .  A
C401       C1361   1.482       .  S
O402        C404   1.284       .  A
O403       Ni414   1.963       .  S
C404        O410   1.293       .  A
C404       C1397   1.492       .  S
C405       C1424   1.479       .  S
H406        O407   0.966       .  S
O407       Ni415   1.910       .  S
O407       Ni409   1.886       .  S
O407       Ni414   1.907       .  S
O408       Ni409   1.885       .  S
Ni409       O413   1.880       .  S
Ni409       O411   1.928       .  S
O410       Ni415   1.983       .  S
C412        O413   1.270       .  A
C412       C1445   1.483       .  S
O417      Ni2407   1.957       .  S
O417        C438   1.291       .  A
O418       Ni441   1.888   1_554  S
O418       C2411   1.253   1_554  A
O419       Ni435   1.944       .  S
O419      Ni2407   1.913       .  S
O419      Ni2425   1.866       .  S
O419        H442   0.966       .  S
C420        O437   1.299       .  A
C420        O429   1.286       .  A
C420       C1301   1.498       .  S
O421       Ni440   1.905       .  S
O421        C427   1.260       .  A
O422       Ni440   1.860       .  S
O422        C424   1.255       .  A
Ni423       O426   2.020       .  S
Ni423       O428   1.906       .  S
Ni423      O2401   1.957   1_554  S
Ni423      O2403   1.913   1_554  S
C424        O434   1.283       .  A
C424       C1352   1.475       .  S
O425       Ni441   1.878   1_554  S
O425        C431   1.249       .  A
O426        C431   1.287       .  A
C427       O2402   1.253       .  A
C427       C1328   1.430       .  S
O428        C430   1.269       .  A
O429       Ni440   1.915       .  S
C430        O436   1.291       .  A
C430       C1313   1.495       .  S
C431       C1337   1.503       .  S
H432        O433   0.959       .  S
O433       Ni435   1.851       .  S
O433       Ni440   1.847       .  S
O433      Ni2425   1.920       .  S
O434       Ni435   1.976       .  S
Ni435       O439   1.905       .  S
Ni435       O437   1.973       .  S
O436       Ni441   1.993   1_554  S
C438        O439   1.281       .  A
C438       C1832   1.490       .  S
Ni441      O2403   1.866       .  S
Ni441      O2417   1.920       .  S
O443       Ni449   1.961       .  S
O443        C464   1.296       .  A
O444       Ni467   1.906       .  S
O444        C453   1.260       .  A
O445       Ni449   1.889       .  S
O445       Ni467   1.867       .  S
O445       Ni461   1.920       .  S
O445        H468   0.965       .  S
C446        O463   1.284       .  A
C446        O455   1.254       .  A
C446       C1265   1.474       .  S
O447       Ni466   1.904       .  S
O447        C453   1.249       .  A
O448       Ni466   1.951       .  S
O448        C450   1.295       .  A
Ni449       O452   1.946       .  S
Ni449       O454   1.971       .  S
C450        O460   1.291       .  A
C450       C1349   1.503       .  S
O451       Ni467   1.959       .  S
O451        C457   1.289       .  A
O452        C457   1.285       .  A
C453       C1289   1.440       .  S
O454        C456   1.277       .  A
O455       Ni466   1.885       .  S
C456        O462   1.249       .  A
C456       C1277   1.486       .  S
C457       C1340   1.513       .  S
H458        O459   0.967       .  S
O459       Ni467   1.943       .  S
O459       Ni461   1.861       .  S
O459       Ni466   1.874       .  S
O460       Ni461   1.963       .  S
Ni461       O465   1.890       .  S
Ni461       O463   1.977       .  S
O462       Ni467   1.881       .  S
C464        O465   1.282       .  A
C464       C1253   1.489       .  S
O469       Ni475   1.907       .  S
O469        C490   1.248       .  A
O470       Ni493   1.886       .  S
O470        C479   1.280       .  A
O471       Ni475   1.872       .  S
O471       Ni493   1.857       .  S
O471       Ni487   1.941       .  S
O471        H494   0.967       .  S
C472        O489   1.290       .  A
C472        O481   1.285       .  A
C472       C1232   1.515       .  S
O473       Ni492   1.957       .  S
O473        C479   1.296       .  A
O474       Ni492   1.972       .  S
O474        C476   1.276       .  A
Ni475       O478   1.885       .  S
Ni475       O480   1.960       .  S
C476        O486   1.249       .  A
C476       C1304   1.489       .  S
O477       Ni493   1.979       .  S
O477        C483   1.285       .  A
O478        C483   1.253       .  A
C479       C1376   1.485       .  S
O480        C482   1.297       .  A
O481       Ni492   1.943       .  S
C482        O488   1.290       .  A
C482       C1244   1.508       .  S
C483       C1316   1.476       .  S
H484        O485   0.965       .  S
O485       Ni493   1.918       .  S
O485       Ni487   1.864       .  S
O485       Ni492   1.885       .  S
O486       Ni487   1.884       .  S
Ni487       O491   1.910       .  S
Ni487       O489   1.960       .  S
O488       Ni493   1.959       .  S
C490        O491   1.262       .  A
C490       C1292   1.439       .  S
O495       Ni501   1.905       .  S
O495       C2500   1.259   1_554  A
O496       Ni519   1.906       .  S
O496        C505   1.281       .  A
O497       Ni501   1.847   1_556  S
O497       Ni519   1.852   1_556  S
O497      Ni2497   1.920       .  S
O497       H2504   0.961       .  S
C498        O515   1.249       .  A
C498        O507   1.282       .  A
C498       C1229   1.497       .  S
O499       Ni518   1.938       .  S
O499       C2489   1.286       .  A
O500       Ni518   1.896       .  S
O500        C502   1.267       .  A
Ni501       O504   1.920       .  S
Ni501       O506   1.854       .  S
C502        O512   1.292       .  A
C502       C1268   1.491       .  S
O503       Ni519   1.971       .  S
O503        C509   1.298       .  A
O504        C509   1.287       .  A
C505       O2483   1.286   1_554  A
C505       C1217   1.480       .  S
O506        C508   1.255       .  A
O507       Ni518   2.008       .  S
C508        O514   1.285       .  A
C508       C1241   1.477       .  S
C509       C1280   1.501       .  S
H510        O511   0.966       .  S
O511       Ni513   1.865       .  S
O511       Ni518   1.918       .  S
O511      Ni2503   1.948       .  S
O512       Ni513   1.999       .  S
Ni513       O517   1.889       .  S
Ni513       O515   1.885       .  S
Ni513      O2481   1.920       .  S
O514       Ni519   1.981       .  S
C516        O517   1.252       .  A
C516       O2479   1.259       .  A
C516       C1325   1.430       .  S
Ni519      O2495   1.948   1_554  S
H520       O2481   0.961       .  S
O521       Ni527   1.960       .  S
O521        C542   1.288       .  A
O522       Ni545   1.905       .  S
O522        C531   1.248       .  A
O523       Ni527   1.906       .  S
O523       Ni545   1.873       .  S
O523       Ni539   1.931       .  S
O523        H546   0.966       .  S
C524        O541   1.289       .  A
C524        O533   1.269       .  A
C524       C1169   1.473       .  S
O525       Ni544   1.880       .  S
O525        C531   1.258       .  A
O526       Ni544   1.890       .  S
O526        C528   1.265       .  A
Ni527       O530   1.997       .  S
Ni527       O532   1.912       .  S
C528        O538   1.266       .  A
C528       C1205   1.462       .  S
O529       Ni545   1.859       .  S
O529        C535   1.248       .  A
O530        C535   1.286       .  A
C531       C1157   1.468       .  S
O532        C534   1.272       .  A
O533       Ni544   1.881       .  S
C534        O540   1.287       .  A
C534       C1181   1.495       .  S
C535       C1196   1.494       .  S
H536        O537   0.962       .  S
O537       Ni545   1.930       .  S
O537       Ni539   1.891       .  S
O537       Ni544   1.910       .  S
O538       Ni539   1.925       .  S
Ni539       O543   1.893       .  S
Ni539       O541   1.968       .  S
O540       Ni545   1.978       .  S
C542        O543   1.275       .  A
C542       C1748   1.493       .  S
O547       Ni553   1.957       .  S
O547        C568   1.288       .  A
O548       Ni571   1.907       .  S
O548        C557   1.248       .  A
O549       Ni553   1.903       .  S
O549       Ni571   1.877       .  S
O549       Ni565   1.934       .  S
O549        H572   0.966       .  S
C550        O567   1.294       .  A
C550        O559   1.268       .  A
C550       C1121   1.475       .  S
O551       Ni570   1.873       .  S
O551        C557   1.254       .  A
O552       Ni570   1.891       .  S
O552        C554   1.264       .  A
Ni553       O556   1.996       .  S
Ni553       O558   1.912       .  S
C554        O564   1.265       .  A
C554       C1208   1.463       .  S
O555       Ni571   1.855       .  S
O555        C561   1.249       .  A
O556        C561   1.287       .  A
C557       C1145   1.467       .  S
O558        C560   1.271       .  A
O559       Ni570   1.873       .  S
C560        O566   1.283       .  A
C560       C1136   1.488       .  S
C561       C1193   1.493       .  S
H562        O563   0.965       .  S
O563       Ni571   1.931       .  S
O563       Ni565   1.895       .  S
O563       Ni570   1.912       .  S
O564       Ni565   1.927       .  S
Ni565       O569   1.903       .  S
Ni565       O567   1.980       .  S
O566       Ni571   1.968       .  S
C568        O569   1.278       .  A
C568       C1592   1.497       .  S
O573       Ni579   1.876       .  S
O573        C594   1.255       .  A
O574       Ni597   1.896       .  S
O574        C583   1.277       .  A
O575       Ni579   1.911       .  S
O575       Ni597   1.893       .  S
O575       Ni591   1.938       .  S
O575        H598   0.966       .  S
C576        O593   1.253       .  A
C576        O585   1.285       .  A
C576       C1109   1.486       .  S
O577       Ni596   1.941       .  S
O577        C583   1.282       .  A
O578       Ni596   1.902       .  S
O578        C580   1.267       .  A
Ni579       O582   1.881       .  S
Ni579       O584   1.898       .  S
C580        O590   1.280       .  A
C580       C1172   1.476       .  S
O581       Ni597   1.987       .  S
O581        C587   1.296       .  A
O582        C587   1.270       .  A
C583       C1220   1.483       .  S
O584        C586   1.263       .  A
O585       Ni596   1.982       .  S
C586        O592   1.262       .  A
C586       C1100   1.462       .  S
C587       C3168   1.481   1_554  S
H588        O589   0.966       .  S
O589       Ni597   1.931       .  S
O589       Ni591   1.876       .  S
O589       Ni596   1.898       .  S
O590       Ni591   1.960       .  S
Ni591       O595   1.907       .  S
Ni591       O593   1.861       .  S
O592       Ni597   1.923       .  S
C594        O595   1.250       .  A
C594       C1148   1.466       .  S
O599       Ni605   1.878       .  S
O599        C620   1.257       .  A
O600       Ni623   1.896       .  S
O600        C609   1.276       .  A
O601       Ni605   1.916       .  S
O601       Ni623   1.895       .  S
O601       Ni617   1.940       .  S
O601        H624   0.965       .  S
C602        O619   1.251       .  A
C602        O611   1.281       .  A
C602       C1112   1.489       .  S
O603       Ni622   1.930       .  S
O603        C609   1.280       .  A
O604       Ni622   1.900       .  S
O604        C606   1.268       .  A
Ni605       O608   1.881       .  S
Ni605       O610   1.891       .  S
C606        O616   1.284       .  A
C606       C1124   1.487       .  S
O607       Ni623   1.979       .  S
O607        C613   1.293       .  A
O608        C613   1.269       .  A
C609       C1085   1.480       .  S
O610        C612   1.265       .  A
O611       Ni622   1.974       .  S
C612        O618   1.265       .  A
C612       C1097   1.461       .  S
C613       C1133   1.481       .  S
H614        O615   0.966       .  S
O615       Ni623   1.936       .  S
O615       Ni617   1.876       .  S
O615       Ni622   1.907       .  S
O616       Ni617   1.968       .  S
Ni617       O621   1.903       .  S
Ni617       O619   1.864       .  S
O618       Ni623   1.922       .  S
C620        O621   1.247       .  A
C620       C1160   1.467       .  S
O625       Ni631   1.890       .  S
O625        C646   1.257       .  A
O626       Ni649   1.875       .  S
O626        C635   1.271       .  A
O627       Ni631   1.876       .  S
O627       Ni649   1.853       .  S
O627       Ni643   1.908       .  S
O627        H650   0.957       .  S
C628        O645   1.254       .  A
C628        O637   1.285       .  A
C628       C1061   1.484       .  S
O629       Ni648   1.956       .  S
O629        C635   1.286       .  A
O630       Ni648   1.912       .  S
O630        C632   1.271       .  A
Ni631       O634   1.893       .  S
Ni631       O636   1.879       .  S
C632        O642   1.289       .  A
C632       C1037   1.495       .  S
O633       Ni649   1.972       .  S
O633        C639   1.295       .  A
O634        C639   1.278       .  A
C635       C1364   1.484       .  S
O636        C638   1.258       .  A
O637       Ni648   1.993       .  S
C638        O644   1.271       .  A
C638       C1073   1.469       .  S
C639       C1052   1.483       .  S
H640        O641   0.966       .  S
O641       Ni649   1.936       .  S
O641       Ni643   1.882       .  S
O641       Ni648   1.910       .  S
O642       Ni643   1.982       .  S
Ni643       O647   1.909       .  S
Ni643       O645   1.867       .  S
O644       Ni649   1.951       .  S
C646        O647   1.259       .  A
C646       C1025   1.455       .  S
O651      Ni2641   1.941       .  S
O651        C672   1.284       .  A
O652       Ni675   1.895   1_554  S
O652       C2645   1.255   1_554  A
O653       Ni669   1.923       .  S
O653      Ni2641   1.897       .  S
O653      Ni2659   1.870       .  S
O653        H676   0.967       .  S
C654        O671   1.295       .  A
C654        O663   1.276       .  A
C654       C1076   1.479       .  S
O655       Ni674   1.885       .  S
O655        C661   1.262       .  A
O656       Ni674   1.887       .  S
O656        C658   1.254       .  A
Ni657       O660   1.967       .  S
Ni657       O662   1.920       .  S
Ni657      O2635   1.941   1_554  S
Ni657      O2637   1.897   1_554  S
C658        O668   1.277       .  A
C658       C1001   1.478       .  S
O659       Ni675   1.886   1_554  S
O659        C665   1.264       .  A
O660        C665   1.282       .  A
C661       O2636   1.255       .  A
C661       C1013   1.460       .  S
O662        C664   1.274       .  A
O663       Ni674   1.884       .  S
C664        O670   1.282       .  A
C664       C1064   1.493       .  S
C665        C989   1.479       .  S
H666        O667   0.963       .  S
O667       Ni669   1.860       .  S
O667       Ni674   1.871       .  S
O667      Ni2659   1.938       .  S
O668       Ni669   1.969       .  S
Ni669       O673   1.886       .  S
Ni669       O671   1.979       .  S
O670       Ni675   1.964   1_554  S
C672        O673   1.275       .  A
C672       C1088   1.477       .  S
Ni675      O2637   1.870       .  S
Ni675      O2651   1.938       .  S
O677       Ni683   1.908   1_655  S
O677       C2682   1.264   1_554  A
O678       Ni701   1.891       .  S
O678        C687   1.277       .  A
O679       Ni683   1.857       .  S
O679       Ni701   1.856       .  S
O679      Ni2679   1.907   1_554  S
O679        H702   0.963   1_554  S
C680        O697   1.261       .  A
C680        O689   1.287       .  A
C680       C1049   1.490   1_455  S
O681       Ni700   1.952       .  S
O681       C2671   1.288       .  A
O682       Ni700   1.925       .  S
O682        C684   1.275       .  A
Ni683       O686   1.899       .  S
Ni683       O688   1.887       .  S
C684        O694   1.285       .  A
C684        C965   1.511       .  S
O685       Ni701   1.968       .  S
O685        C691   1.295       .  A
O686        C691   1.283       .  A
C687       O2665   1.288   1_554  A
C687       C1820   1.484       .  S
O688        C690   1.253       .  A
O689       Ni700   1.984       .  S
C690        O696   1.277       .  A
C690       C1040   1.481       .  S
C691        C980   1.480       .  S
H692        O693   0.967       .  S
O693       Ni695   1.867       .  S
O693       Ni700   1.891       .  S
O693      Ni2685   1.919       .  S
O694       Ni695   1.976       .  S
Ni695       O699   1.876   1_455  S
Ni695       O697   1.880       .  S
Ni695      O2663   1.907       .  S
O696       Ni701   1.976       .  S
C698        O699   1.265       .  A
C698       O2661   1.264       .  A
C698       C1016   1.452       .  S
Ni701      O2677   1.919   1_554  S
O703       Ni709   1.978       .  S
O703        C724   1.293       .  A
O704       Ni727   1.910       .  S
O704        C713   1.256       .  A
O705       Ni709   1.910       .  S
O705       Ni727   1.879       .  S
O705       Ni721   1.936       .  S
O705        H728   0.966       .  S
C706        O723   1.287       .  A
C706        O715   1.283       .  A
C706        C992   1.479       .  S
O707       Ni726   1.894       .  S
O707        C713   1.256       .  A
O708       Ni726   1.869       .  S
O708        C710   1.259       .  A
Ni709       O712   2.015       .  S
Ni709       O714   1.912       .  S
C710        O720   1.269       .  A
C710        C977   1.463       .  S
O711       Ni727   1.870       .  S
O711        C717   1.248       .  A
O712        C717   1.288       .  A
C713       C1028   1.453       .  S
O714        C716   1.274       .  A
O715       Ni726   1.914       .  S
C716        O722   1.288       .  A
C716       C1004   1.485       .  S
C717        C968   1.490       .  S
H718        O719   0.964       .  S
O719       Ni727   1.911       .  S
O719       Ni721   1.862       .  S
O719       Ni726   1.875       .  S
O720       Ni721   1.940       .  S
Ni721       O725   1.872       .  S
Ni721       O723   1.941       .  S
O722       Ni727   1.978       .  S
C724        O725   1.265       .  A
C724        C953   1.497       .  S
O729       Ni735   1.890       .  S
O729        C750   1.257       .  A
O730       Ni753   1.895       .  S
O730        C739   1.274       .  A
O731       Ni735   1.916       .  S
O731       Ni753   1.886       .  S
O731       Ni747   1.946       .  S
O731        H754   0.966       .  S
C732        O749   1.258       .  A
C732        O741   1.282       .  A
C732        C929   1.508       .  S
O733       Ni752   1.951       .  S
O733        C739   1.285       .  A
O734       Ni752   1.913       .  S
O734        C736   1.275       .  A
Ni735       O738   1.913       .  S
Ni735       O740   1.870       .  S
C736        O746   1.291       .  A
C736        C905   1.493       .  S
O737       Ni753   1.990       .  S
O737        C743   1.296       .  A
O738        C743   1.273       .  A
C739       C1664   1.495       .  S
O740        C742   1.263       .  A
O741       Ni752   1.994       .  S
C742        O748   1.268       .  A
C742        C941   1.466       .  S
C743       C2877   1.509       .  S
H744        O745   0.966       .  S
O745       Ni753   1.957       .  S
O745       Ni747   1.881       .  S
O745       Ni752   1.915       .  S
O746       Ni747   1.975       .  S
Ni747       O751   1.917       .  S
Ni747       O749   1.895       .  S
O748       Ni753   1.935       .  S
C750        O751   1.253       .  A
C750        C917   1.467       .  S
O755       Ni761   1.954       .  S
O755        C776   1.289       .  A
O756       Ni779   1.897       .  S
O756        C765   1.264       .  A
O757       Ni761   1.891       .  S
O757       Ni779   1.876       .  S
O757       Ni773   1.913       .  S
O757        H780   0.967       .  S
C758        O775   1.299       .  A
C758        O767   1.279       .  A
C758        C944   1.479       .  S
O759       Ni778   1.886       .  S
O759        C765   1.259       .  A
O760       Ni778   1.899       .  S
O760        C762   1.252       .  A
Ni761       O764   1.972       .  S
Ni761       O766   1.941       .  S
C762        O772   1.288       .  A
C762        C857   1.543       .  S
O763       Ni779   1.880       .  S
O763        C769   1.268       .  A
O764        C769   1.286       .  A
C765        C881   1.425       .  S
O766        C768   1.276       .  A
O767       Ni778   1.878       .  S
C768        O774   1.275       .  A
C768        C932   1.497       .  S
C769        C872   1.474       .  S
H770        O771   0.963       .  S
O771       Ni779   1.892       .  S
O771       Ni773   1.857       .  S
O771       Ni778   1.839       .  S
O772       Ni773   2.035       .  S
Ni773       O777   1.903       .  S
Ni773       O775   1.978       .  S
O774       Ni779   1.953       .  S
C776        O777   1.281       .  A
C776       C1508   1.493       .  S
O781       Ni787   1.967       .  S
O781        C802   1.295       .  A
O782       Ni805   1.905       .  S
O782        C791   1.254       .  A
O783       Ni787   1.885       .  S
O783       Ni805   1.851       .  S
O783       Ni799   1.913       .  S
O783        H806   0.967       .  S
C784        O801   1.301       .  A
C784        O793   1.278       .  A
C784        C908   1.503       .  S
O785       Ni804   1.896       .  S
O785        C791   1.252       .  A
O786       Ni804   1.883       .  S
O786        C788   1.257       .  A
Ni787       O790   2.020       .  S
Ni787       O792   1.934       .  S
C788        O798   1.269       .  A
C788        C845   1.471       .  S
O789       Ni805   1.849       .  S
O789        C795   1.242       .  A
O790        C795   1.293       .  A
C791        C884   1.431       .  S
O792        C794   1.274       .  A
O793       Ni804   1.880       .  S
C794        O800   1.286       .  A
C794        C896   1.515       .  S
C795        C836   1.491       .  S
H796        O797   0.965       .  S
O797       Ni805   1.912       .  S
O797       Ni799   1.883       .  S
O797       Ni804   1.871       .  S
O798       Ni799   1.954       .  S
Ni799       O803   1.900       .  S
Ni799       O801   1.995       .  S
O800       Ni805   1.993       .  S
C802        O803   1.284       .  A
C802       C1256   1.496       .  S
O807       Ni813   1.996       .  S
O807        C828   1.296       .  A
O808       Ni831   1.915       .  S
O808        C817   1.254       .  A
O809       Ni813   1.891       .  S
O809       Ni831   1.877       .  S
O809       Ni825   1.903       .  S
O809        H832   0.967       .  S
C810        O827   1.281       .  A
C810        O819   1.274       .  A
C810        C869   1.475       .  S
O811       Ni830   1.887       .  S
O811        C817   1.253       .  A
O812       Ni830   1.898       .  S
O812        C814   1.261       .  A
Ni813       O816   2.008       .  S
Ni813       O818   1.970       .  S
C814        O824   1.260       .  A
C814        C848   1.472       .  S
O815       Ni831   1.833       .  S
O815        C821   1.252       .  A
O816        C821   1.297       .  A
C817        C920   1.464       .  S
O818        C820   1.282       .  A
O819       Ni830   1.898       .  S
C820        O826   1.283       .  A
C820        C860   1.532       .  S
C821        C833   1.493       .  S
H822        O823   0.966       .  S
O823       Ni831   1.920       .  S
O823       Ni825   1.879       .  S
O823       Ni830   1.910       .  S
O824       Ni825   1.928       .  S
Ni825       O829   1.846       .  S
Ni825       O827   1.940       .  S
O826       Ni831   1.958       .  S
C828        O829   1.259       .  A
C828        C956   1.499       .  S
C833        C834   1.425       .  A
C833       C2822   1.397   1_554  A
C834        C835   1.400       .  A
C834        H839   1.083       .  S
C835       C2820   1.395   1_554  A
C835        O840   1.372       .  S
C836        C837   1.425       .  A
C836       C2819   1.395       .  A
C837        C838   1.401       .  A
C837        H841   1.084       .  S
C838       C2817   1.397       .  A
C838        O842   1.371       .  S
O840        H844   0.991       .  S
O842        H843   0.992       .  S
C845        C846   1.397       .  A
C845        C850   1.414       .  A
C846        C847   1.400       .  A
C846        H851   1.083       .  S
C847        C848   1.413       .  A
C847        O852   1.369       .  S
C848        C849   1.397       .  A
C849        C850   1.405       .  A
C849        H853   1.083       .  S
C850        O854   1.369       .  S
O852        H856   0.991       .  S
O854        H855   0.991       .  S
C857        C858   1.420       .  A
C857        C862   1.427       .  A
C858       C2843   1.440       .  A
C858        H863   1.083       .  S
C859        C860   1.424       .  A
C859       C2842   1.440   1_554  A
C859        O864   1.370       .  S
C860        C861   1.396       .  A
C861       C2846   1.404   1_554  A
C861        H865   1.081       .  S
C862       C2845   1.404       .  A
C862        O866   1.376       .  S
O864        H868   0.992       .  S
O866        H867   0.990       .  S
C869        C870   1.405       .  A
C869        C874   1.405       .  A
C870        C871   1.399       .  A
C870        H875   1.084       .  S
C871        C872   1.408       .  A
C871        O876   1.373       .  S
C872        C873   1.408       .  A
C873        C874   1.401       .  A
C873        H877   1.084       .  S
C874        O878   1.372       .  S
O876        H880   0.992       .  S
O878        H879   0.992       .  S
C881        C882   1.399       .  A
C881        C886   1.401       .  A
C882        C883   1.394       .  A
C882        H887   1.084       .  S
C883        C884   1.405       .  A
C883        O888   1.371       .  S
C884        C885   1.397       .  A
C885        C886   1.374       .  A
C885        H889   1.084       .  S
C886        O890   1.375       .  S
O888        H892   0.992       .  S
O890        H891   0.992       .  S
C893       C2727   1.509       .  S
C893        C898   1.413       .  A
C893       C2878   1.410       .  A
C894       C2877   1.410       .  A
C894       C2879   1.412       .  A
C894        H899   1.084       .  S
C895        C896   1.411       .  A
C895       C2878   1.412       .  A
C895        O900   1.371       .  S
C896        C897   1.415       .  A
C897        C898   1.423       .  A
C897        H901   1.083       .  S
C898        O902   1.370       .  S
O900       H2888   0.992       .  S
O902        H903   0.992       .  S
H904       O2884   0.992       .  S
C905        C906   1.414       .  A
C905        C910   1.404       .  A
C906        C907   1.419       .  A
C906        H911   1.083       .  S
C907        C908   1.412       .  A
C907        O912   1.371       .  S
C908        C909   1.411       .  A
C909        C910   1.393       .  A
C909        H913   1.083       .  S
C910        O914   1.375       .  S
O912        H916   0.992       .  S
O914        H915   0.991       .  S
C917        C918   1.405       .  A
C917        C922   1.405       .  A
C918        C919   1.393       .  A
C918        H923   1.084       .  S
C919        C920   1.404       .  A
C919        O924   1.370       .  S
C920        C921   1.403       .  A
C921        C922   1.382       .  A
C921        H925   1.085       .  S
C922        O926   1.370       .  S
O924        H928   0.990       .  S
O926        H927   0.991       .  S
C929        C930   1.415       .  A
C929        C934   1.412       .  A
C930        C931   1.409       .  A
C930        H935   1.083       .  S
C931        C932   1.406       .  A
C931        O936   1.371       .  S
C932        C933   1.409       .  A
C933        C934   1.412       .  A
C933        H937   1.083       .  S
C934        O938   1.371       .  S
O936        H940   0.992       .  S
O938        H939   0.991       .  S
C941        C942   1.411       .  A
C941       C2930   1.400   1_554  A
C942        C943   1.402   1_554  A
C942        H947   1.084       .  S
C943       C2928   1.404       .  A
C943        O948   1.371   1_556  S
C944        C945   1.413       .  A
C944       C2927   1.404       .  A
C945        C946   1.399       .  A
C945        H949   1.084       .  S
C946       C2925   1.400       .  A
C946        O950   1.373       .  S
O948        H952   0.991   1_554  S
O950        H951   0.992       .  S
C953        C954   1.395       .  A
C953        C958   1.426       .  A
C954        C955   1.397       .  A
C954        H959   1.084       .  S
C955        C956   1.428       .  A
C955        O960   1.373       .  S
C956        C957   1.399       .  A
C957        C958   1.408       .  A
C957        H961   1.083       .  S
C958        O962   1.372       .  S
O960        H964   0.992       .  S
O962        H963   0.992       .  S
C965        C966   1.410       .  A
C965        C970   1.418       .  A
C966        C967   1.409       .  A
C966        H971   1.083       .  S
C967        C968   1.411       .  A
C967        O972   1.371       .  S
C968        C969   1.407       .  A
C969        C970   1.413       .  A
C969        H973   1.084       .  S
C970        O974   1.371       .  S
O972        H976   0.992       .  S
O974        H975   0.992       .  S
C977        C978   1.407       .  A
C977        C982   1.403       .  A
C978        C979   1.402       .  A
C978        H983   1.084       .  S
C979        C980   1.406       .  A
C979        O984   1.371       .  S
C980        C981   1.409       .  A
C981        C982   1.398       .  A
C981        H985   1.084       .  S
C982        O986   1.372       .  S
O984        H988   0.991       .  S
O986        H987   0.991       .  S
C989        C990   1.407   1_655  A
C989        C994   1.410       .  A
C990        C991   1.401       .  A
C990        H995   1.084       .  S
C991        C992   1.407       .  A
C991        O996   1.371       .  S
C992        C993   1.405   1_455  A
C993        C994   1.400       .  A
C993        H997   1.084       .  S
C994        O998   1.373       .  S
O996       H1000   0.992       .  S
O998        H999   0.992       .  S
C1001      C1002   1.407   1_655  A
C1001      C1006   1.408       .  A
C1002      C1003   1.408       .  A
C1002      H1007   1.084       .  S
C1003      C1004   1.408       .  A
C1003      O1008   1.371       .  S
C1004      C1005   1.404       .  A
C1005      C1006   1.406   1_455  A
C1005      H1009   1.083       .  S
C1006      O1010   1.370       .  S
O1008      H1012   0.991       .  S
O1010      H1011   0.991       .  S
C1013      C1014   1.407       .  A
C1013      C3002   1.412       .  A
C1014      C1015   1.383       .  A
C1014      H1019   1.083       .  S
C1015      C1016   1.401       .  A
C1015      O1020   1.373       .  S
C1016      C3001   1.400       .  A
C1017      C1018   1.385       .  A
C1017      C3000   1.400   1_554  A
C1017      H1021   1.084       .  S
C1018      C2997   1.412   1_554  A
C1018      O1022   1.373       .  S
O1020      H1024   0.992       .  S
O1022      H1023   0.992       .  S
C1025      C1026   1.402       .  A
C1025      C1030   1.407       .  A
C1026      C1027   1.387   1_655  A
C1026      H1031   1.083       .  S
C1027      C1028   1.408       .  A
C1027      O1032   1.374       .  S
C1028      C1029   1.403       .  A
C1029      C1030   1.388   1_455  A
C1029      H1033   1.084       .  S
C1030      O1034   1.371       .  S
O1032      H1036   0.992       .  S
O1034      H1035   0.991       .  S
C1037      C1038   1.406       .  A
C1037      C1042   1.409       .  A
C1038      C1039   1.417       .  A
C1038      H1043   1.083       .  S
C1039      C1040   1.412   1_655  A
C1039      O1044   1.376       .  S
C1040      C1041   1.403   1_455  A
C1041      C1042   1.402       .  A
C1041      H1045   1.084   1_655  S
C1042      O1046   1.366       .  S
O1044      H1048   0.992       .  S
O1046      H1047   0.992       .  S
C1049      C1050   1.414       .  A
C1049      C1054   1.408   1_655  A
C1050      C1051   1.406       .  A
C1050      H1055   1.084       .  S
C1051      C1052   1.403       .  A
C1051      O1056   1.372       .  S
C1052      C1053   1.409       .  A
C1053      C1054   1.401   1_655  A
C1053      H1057   1.084       .  S
C1054      O1058   1.371       .  S
O1056      H1060   0.992       .  S
O1058      H1059   0.991       .  S
C1061      C1062   1.410       .  A
C1061      C1066   1.405       .  A
C1062      C1063   1.403       .  A
C1062      H1067   1.084       .  S
C1063      C1064   1.408       .  A
C1063      O1068   1.371       .  S
C1064      C1065   1.408       .  A
C1065      C1066   1.409       .  A
C1065      H1069   1.079       .  S
C1066      O1070   1.371       .  S
O1068      H1072   0.992       .  S
O1070      H1071   0.991       .  S
C1073      C1074   1.410       .  A
C1073      C1078   1.404       .  A
C1074      C1075   1.405       .  A
C1074      H1079   1.084       .  S
C1075      C1076   1.404       .  A
C1075      O1080   1.371       .  S
C1076      C1077   1.409       .  A
C1077      C1078   1.402       .  A
C1077      H1081   1.084       .  S
C1078      O1082   1.373       .  S
O1080      H1084   0.991       .  S
O1082      H1083   0.992       .  S
C1085      C1086   1.408       .  A
C1085      C1090   1.410       .  A
C1086      C1087   1.394       .  A
C1086      H1091   1.083       .  S
C1087      C1088   1.408       .  A
C1087      O1092   1.372       .  S
C1088      C1089   1.406       .  A
C1089      C1090   1.396       .  A
C1089      H1093   1.083       .  S
C1090      O1094   1.372       .  S
O1092      H1096   0.992       .  S
O1094      H1095   0.992       .  S
C1097      C1098   1.408       .  A
C1097      C1102   1.401       .  A
C1098      C1099   1.400       .  A
C1098      H1103   1.085       .  S
C1099      C3084   1.401       .  A
C1099      O1104   1.372       .  S
C1100      C1101   1.407       .  A
C1100      C3083   1.401   1_554  A
C1101      C3086   1.399       .  A
C1101      H1105   1.084       .  S
C1102      C3085   1.399       .  A
C1102      O1106   1.371       .  S
O1104      H1108   0.992       .  S
O1106      H3091   0.991       .  S
H1107      O3090   0.991       .  S
C1109      C1110   1.396       .  A
C1109      C1114   1.423       .  A
C1110      C1111   1.398       .  A
C1110      H1115   1.084       .  S
C1111      C1112   1.424       .  A
C1111      O1116   1.372       .  S
C1112      C1113   1.397       .  A
C1113      C1114   1.400       .  A
C1113      H1117   1.083       .  S
C1114      O1118   1.374       .  S
O1116      H1120   0.992       .  S
O1118      H1119   0.992       .  S
C1121      C1122   1.405       .  A
C1121      C1126   1.412       .  A
C1122      C1123   1.408       .  A
C1122      H1127   1.084       .  S
C1123      C1124   1.412       .  A
C1123      O1128   1.371       .  S
C1124      C1125   1.402       .  A
C1125      C1126   1.403       .  A
C1125      H1129   1.083       .  S
C1126      O1130   1.372       .  S
O1128      H1132   0.992       .  S
O1130      H1131   0.991       .  S
C1133      C1138   1.412       .  A
C1133      C3118   1.406       .  A
C1134      C1135   1.408       .  A
C1134      C3117   1.406   1_554  A
C1134      H1139   1.083       .  S
C1135      C1136   1.409       .  A
C1135      O1140   1.371       .  S
C1136      C3121   1.403   1_554  A
C1137      C1138   1.408       .  A
C1137      C3120   1.403       .  A
C1137      H1141   1.084       .  S
C1138      O1142   1.373       .  S
O1140      H1144   0.992       .  S
O1142      H1143   0.992       .  S
C1145      C1146   1.406       .  A
C1145      C1150   1.409       .  A
C1146      C1147   1.388       .  A
C1146      H1151   1.083       .  S
C1147      C1148   1.409       .  A
C1147      O1152   1.373       .  S
C1148      C1149   1.406       .  A
C1149      C1150   1.388       .  A
C1149      H1153   1.084       .  S
C1150      O1154   1.372       .  S
O1152      H1156   0.991       .  S
O1154      H1155   0.990       .  S
C1157      C1158   1.402       .  A
C1157      C1162   1.412       .  A
C1158      C1159   1.387       .  A
C1158      H1163   1.083       .  S
C1159      C1160   1.412       .  A
C1159      O1164   1.372       .  S
C1160      C1161   1.402       .  A
C1161      C1162   1.389       .  A
C1161      H1165   1.084       .  S
C1162      O1166   1.372       .  S
O1164      H1168   0.992       .  S
O1166      H1167   0.992       .  S
C1169      C1170   1.407       .  A
C1169      C1174   1.408       .  A
C1170      C1171   1.401       .  A
C1170      H1175   1.084       .  S
C1171      C1172   1.405       .  A
C1171      O1176   1.372       .  S
C1172      C1173   1.404       .  A
C1173      C1174   1.406       .  A
C1173      H1177   1.084       .  S
C1174      O1178   1.371       .  S
O1176      H1180   0.992       .  S
O1178      H1179   0.991       .  S
C1181      C1182   1.407       .  A
C1181      C1186   1.410       .  A
C1182      C1183   1.410       .  A
C1182      H1187   1.083       .  S
C1183      C1184   1.411       .  A
C1183      O3172   1.371       .  S
C1184      C2571   1.481       .  S
C1184      C1185   1.405       .  A
C1185      C1186   1.406       .  A
C1185      H1189   1.084       .  S
C1186      O1190   1.369       .  S
O1188      C3167   1.371   1_554  S
O1188      H1192   0.991       .  S
O1190      H1191   0.992       .  S
C1193      C1194   1.420       .  A
C1193      C3182   1.400   1_554  A
C1194      C3179   1.402   1_554  A
C1194      H1199   1.083       .  S
C1195      C1196   1.401       .  A
C1195      C3178   1.402       .  A
C1195      O1200   1.371       .  S
C1196      C1197   1.421       .  A
C1197      C1198   1.402       .  A
C1197      H1201   1.083       .  S
C1198      C3177   1.400       .  A
C1198      O1202   1.371       .  S
O1200      H3188   0.992       .  S
O1202      H1203   0.992       .  S
H1204      O3184   0.992       .  S
C1205      C1206   1.408       .  A
C1205      C1210   1.401       .  A
C1206      C1207   1.400       .  A
C1206      H1211   1.085       .  S
C1207      C1208   1.401       .  A
C1207      O1212   1.371       .  S
C1208      C1209   1.408       .  A
C1209      C1210   1.400       .  A
C1209      H1213   1.085       .  S
C1210      O1214   1.371       .  S
O1212      H1216   0.991       .  S
O1214      H1215   0.991       .  S
C1217      C1218   1.406       .  A
C1217      C1222   1.409       .  A
C1218      C1219   1.397       .  A
C1218      H3207   1.084   1_554  S
C1219      C1220   1.410       .  A
C1219      O1224   1.373   1_554  S
C1220      C1221   1.409       .  A
C1221      C1222   1.398       .  A
C1221      H1225   1.083       .  S
C1222      O1226   1.372       .  S
H1223      C3202   1.084       .  S
O1224      H1228   0.992       .  S
O1226      H1227   0.992       .  S
C1229      C1230   1.405       .  A
C1229      C1234   1.409       .  A
C1230      C1231   1.408       .  A
C1230      H1235   1.079       .  S
C1231      C1232   1.414       .  A
C1231      O1236   1.375       .  S
C1232      C1233   1.417       .  A
C1233      C1234   1.417       .  A
C1233      H1237   1.083       .  S
C1234      O1238   1.371       .  S
O1236      H1240   0.992       .  S
O1238      H1239   0.992       .  S
C1241      C1242   1.405       .  A
C1241      C1246   1.413       .  A
C1242      C1243   1.409       .  A
C1242      H1247   1.084       .  S
C1243      C1244   1.420       .  A
C1243      O1248   1.371       .  S
C1244      C1245   1.401       .  A
C1245      C1246   1.408       .  A
C1245      H1249   1.072       .  S
C1246      O1250   1.373       .  S
O1248      H1252   0.992       .  S
O1250      H1251   0.992       .  S
C1253      C1254   1.407       .  A
C1253      C1258   1.408       .  A
C1254      C1255   1.402       .  A
C1254      H1259   1.084       .  S
C1255      C1256   1.413       .  A
C1255      O1260   1.372       .  S
C1256      C1257   1.412       .  A
C1257      C1258   1.404       .  A
C1257      H1261   1.083       .  S
C1258      O1262   1.371       .  S
O1260      H1264   0.992       .  S
O1262      H1263   0.992       .  S
C1265      C1266   1.408       .  A
C1265      C1270   1.410       .  A
C1266      C1267   1.408       .  A
C1266      H1271   1.084       .  S
C1267      C1268   1.409       .  A
C1267      O1272   1.371       .  S
C1268      C1269   1.406       .  A
C1269      C1270   1.408       .  A
C1269      H1273   1.080       .  S
C1270      O1274   1.373       .  S
O1272      H1276   0.992       .  S
O1274      H1275   0.991       .  S
C1277      C1278   1.412       .  A
C1277      C1282   1.408       .  A
C1278      C1279   1.407       .  A
C1278      H1283   1.084       .  S
C1279      C1280   1.410       .  A
C1279      O1284   1.371       .  S
C1280      C1281   1.412       .  A
C1281      C1282   1.406       .  A
C1281      H1285   1.084       .  S
C1282      O1286   1.371       .  S
O1284      H1288   0.992       .  S
O1286      H1287   0.991       .  S
C1289      C1290   1.396       .  A
C1289      C1294   1.410       .  A
C1290      C1291   1.377       .  A
C1290      H1295   1.081       .  S
C1291      C1292   1.410       .  A
C1291      O1296   1.372       .  S
C1292      C1293   1.392       .  A
C1293      C1294   1.375       .  A
C1293      H1297   1.074       .  S
C1294      O1298   1.373       .  S
O1296      H1300   0.992       .  S
O1298      H1299   0.992       .  S
C1301      C1302   1.412       .  A
C1301      C1306   1.409       .  A
C1302      C1303   1.409       .  A
C1302      H1307   1.084       .  S
C1303      C1304   1.408       .  A
C1303      O1308   1.373       .  S
C1304      C1305   1.412       .  A
C1305      C1306   1.406       .  A
C1305      H1309   1.084       .  S
C1306      O1310   1.371       .  S
O1308      H1312   0.992       .  S
O1310      H1311   0.992       .  S
C1313      C1314   1.408       .  A
C1313      C1318   1.409       .  A
C1314      C1315   1.408       .  A
C1314      H1319   1.079       .  S
C1315      C1316   1.406       .  A
C1315      O1320   1.370       .  S
C1316      C1317   1.409       .  A
C1317      C1318   1.410       .  A
C1317      H1321   1.084       .  S
C1318      O1322   1.371       .  S
O1320      H1324   0.991       .  S
O1322      H1323   0.992       .  S
C1325      C1326   1.403       .  A
C1325      C3314   1.401       .  A
C1326      C1327   1.378       .  A
C1326      H1331   1.084       .  S
C1327      C1328   1.400       .  A
C1327      O1332   1.371       .  S
C1328      C3313   1.404       .  A
C1329      C1330   1.380   1_554  A
C1329      C3312   1.404   1_554  A
C1329      H1333   1.084       .  S
C1330      C3309   1.401       .  A
C1330      O1334   1.371   1_556  S
O1332      H1336   0.992       .  S
O1334      H1335   0.992       .  S
C1337      C1338   1.412       .  A
C1337      C1342   1.411       .  A
C1338      C1339   1.413       .  A
C1338      H1343   1.084       .  S
C1339      C1340   1.413       .  A
C1339      O1344   1.371       .  S
C1340      C1341   1.409       .  A
C1341      C1342   1.416       .  A
C1341      H1345   1.077       .  S
C1342      O1346   1.372       .  S
O1344      H1348   0.992       .  S
O1346      H1347   0.992       .  S
C1349      C1350   1.402       .  A
C1349      C1354   1.418       .  A
C1350      C1351   1.406       .  A
C1350      H1355   1.075       .  S
C1351      C1352   1.412       .  A
C1351      O1356   1.371       .  S
C1352      C1353   1.405       .  A
C1353      C1354   1.408       .  A
C1353      H1357   1.084       .  S
C1354      O1358   1.371       .  S
O1356      H1360   0.991       .  S
O1358      H1359   0.992       .  S
C1361      C1362   1.409       .  A
C1361      C1366   1.409       .  A
C1362      C1363   1.400       .  A
C1362      H1367   1.083       .  S
C1363      C1364   1.410       .  A
C1363      O1368   1.371       .  S
C1364      C1365   1.408       .  A
C1365      C1366   1.393       .  A
C1365      H1369   1.083       .  S
C1366      O1370   1.372       .  S
O1368      H1372   0.992       .  S
O1370      H1371   0.992       .  S
C1373      C1374   1.403       .  A
C1373      C1378   1.415       .  A
C1374      C1375   1.400       .  A
C1374      H1379   1.083       .  S
C1375      C1376   1.415       .  A
C1375      O1380   1.372       .  S
C1376      C1377   1.402       .  A
C1377      C1378   1.400       .  A
C1377      H1381   1.083       .  S
C1378      O1382   1.372       .  S
O1380      H1384   0.992       .  S
O1382      H1383   0.992       .  S
C1385      C2352   1.500       .  S
C1385      C1386   1.405       .  A
C1385      C3374   1.415       .  A
C1386      C1387   1.413       .  A
C1386      H1391   1.083       .  S
C1387      C1388   1.418       .  A
C1387      O1392   1.371       .  S
C1388      C1389   1.407       .  A
C1389      C3374   1.411       .  A
C1389      H1393   1.083       .  S
C1390      C3369   1.415   1_554  A
C1390      C3373   1.411   1_554  A
C1390      O1394   1.371       .  S
O1392      H1396   0.992       .  S
O1394      H1395   0.992       .  S
C1397      C1398   1.405       .  A
C1397      C1402   1.413       .  A
C1398      C1399   1.404       .  A
C1398      H1403   1.084       .  S
C1399      C1400   1.409       .  A
C1399      O1404   1.373       .  S
C1400      C1401   1.404       .  A
C1401      C1402   1.408       .  A
C1401      H1405   1.084       .  S
C1402      O1406   1.371       .  S
O1404      H1408   0.992       .  S
O1406      H1407   0.991       .  S
C1409      C1410   1.399       .  A
C1409      C1414   1.416       .  A
C1410      C1411   1.401       .  A
C1410      H1415   1.084       .  S
C1411      C1412   1.415       .  A
C1411      O1416   1.373       .  S
C1412      C2326   1.475       .  S
C1412      C1413   1.398       .  A
C1413      C1414   1.404       .  A
C1413      H1417   1.083       .  S
C1414      O1418   1.371       .  S
O1416      H1420   0.991       .  S
O1418      H1419   0.991       .  S
C1421      C1422   1.410       .  A
C1421      C1426   1.405       .  A
C1422      C1423   1.407       .  A
C1422      H1427   1.080       .  S
C1423      C1424   1.404       .  A
C1423      O1428   1.372       .  S
C1424      C1425   1.410       .  A
C1425      C1426   1.404       .  A
C1425      H1429   1.084       .  S
C1426      O1430   1.371       .  S
O1428      H1432   0.992       .  S
O1430      H1431   0.991       .  S
C1433      C1434   1.394       .  A
C1433      C1438   1.402       .  A
C1434      C1435   1.398       .  A
C1434      H1439   1.084       .  S
C1435      C1436   1.422       .  A
C1435      O1440   1.364       .  S
C1436      C1437   1.419       .  A
C1437      C1438   1.400       .  A
C1437      H1441   1.084       .  S
C1438      O1442   1.371       .  S
O1440      H1444   0.992       .  S
O1442      H1443   0.991       .  S
C1445      C1446   1.399       .  A
C1445      C1450   1.395       .  A
C1446      C1447   1.400       .  A
C1446      H1451   1.083       .  S
C1447      C1448   1.426       .  A
C1447      O1452   1.373       .  S
C1448      C1449   1.411       .  A
C1449      C1450   1.398       .  A
C1449      H1453   1.070       .  S
C1450      O1454   1.374       .  S
O1452      H1456   0.992       .  S
O1454      H1455   0.992       .  S
C1457      C1458   1.402   1_554  A
C1457      C1462   1.417       .  A
C1458      C3443   1.405       .  A
C1458      H1463   1.083       .  S
C1459      C1460   1.415       .  A
C1459      C3442   1.405       .  A
C1459      O1464   1.371       .  S
C1460      C1461   1.396       .  A
C1461      C3446   1.397       .  A
C1461      H1465   1.085       .  S
C1462      C3445   1.397       .  A
C1462      O1466   1.370       .  S
O1464      H3452   0.991       .  S
O1466      H1467   0.991       .  S
H1468      O3448   0.991       .  S
C1469      C1470   1.403       .  A
C1469      C1474   1.414       .  A
C1470      C1471   1.406       .  A
C1470      H1475   1.084       .  S
C1471      C1472   1.412       .  A
C1471      O1476   1.371       .  S
C1472      C1473   1.399       .  A
C1473      C1474   1.399       .  A
C1473      H1477   1.084       .  S
C1474      O1478   1.369       .  S
O1476      H1480   0.991       .  S
O1478      H1479   0.992       .  S
C1481      C1482   1.403       .  A
C1481      C1486   1.416       .  A
C1482      C3467   1.404       .  A
C1482      H3471   1.082       .  S
C1483      C1484   1.416       .  A
C1483      C3466   1.404       .  A
C1483      O1488   1.370       .  S
C1484      C3469   1.410   1_554  A
C1485      C1486   1.418       .  A
C1485      C3468   1.410       .  A
C1485      H1489   1.083       .  S
C1486      O1490   1.371       .  S
H1487      C3466   1.082       .  S
O1488      H1492   0.992       .  S
O1490      H1491   0.991       .  S
C1493      C1494   1.404       .  A
C1493      C1498   1.420       .  A
C1494      C1495   1.412       .  A
C1494      H1499   1.083       .  S
C1495      C1496   1.417       .  A
C1495      O1500   1.370       .  S
C1496      C1497   1.402       .  A
C1497      C1498   1.408       .  A
C1497      H1501   1.083       .  S
C1498      O1502   1.372       .  S
O1500      H1504   0.991       .  S
O1502      H1503   0.992       .  S
C1505      C1506   1.408       .  A
C1505      C1510   1.414       .  A
C1506      C1507   1.409       .  A
C1506      H1511   1.083       .  S
C1507      C1508   1.414       .  A
C1507      O1512   1.371       .  S
C1508      C1509   1.405       .  A
C1509      C1510   1.395       .  A
C1509      H1513   1.083       .  S
C1510      O1514   1.372       .  S
O1512      H1516   0.992       .  S
O1514      H1515   0.992       .  S
C1517      C1518   1.398       .  A
C1517      C1522   1.416   1_545  A
C1518      C1519   1.402       .  A
C1518      H1523   1.084       .  S
C1519      C1520   1.414   1_545  A
C1519      O1524   1.371       .  S
C1520      C1521   1.396       .  A
C1521      C1522   1.401       .  A
C1521      H1525   1.084       .  S
C1522      O1526   1.373       .  S
O1524      H1528   0.991       .  S
O1526      H1527   0.992       .  S
C1529      C1530   1.397       .  A
C1529      C1534   1.419       .  A
C1530      C1531   1.408       .  A
C1530      H1535   1.083       .  S
C1531      C1532   1.425   1_545  A
C1531      O1536   1.372       .  S
C1532      C1533   1.398       .  A
C1533      C1534   1.403   1_565  A
C1533      H1537   1.084       .  S
C1534      O1538   1.372       .  S
O1536      H1540   0.991       .  S
O1538      H1539   0.991       .  S
C1541      C1542   1.412   1_554  A
C1541      C1546   1.413       .  A
C1542      C1543   1.410   1_556  A
C1542      H1547   1.083       .  S
C1543      C1544   1.410       .  A
C1543      O1548   1.371   1_554  S
C1544      C1545   1.406       .  A
C1545      C1546   1.397       .  A
C1545      H1549   1.084       .  S
C1546      O1550   1.372       .  S
O1548      H1552   0.992       .  S
O1550      H1551   0.992       .  S
C1553      C1554   1.413   1_655  A
C1553      C1558   1.407       .  A
C1554      C1555   1.413       .  A
C1554      H1559   1.084       .  S
C1555      C1556   1.409       .  A
C1555      O1560   1.372       .  S
C1556      C1557   1.413       .  A
C1557      C1558   1.411   1_455  A
C1557      H1561   1.084       .  S
C1558      O1562   1.371       .  S
O1560      H1564   0.992       .  S
O1562      H1563   0.992       .  S
C1565      C1566   1.407       .  A
C1565      C1570   1.413       .  A
C1566      C1567   1.414       .  A
C1566      H1571   1.083       .  S
C1567      C1568   1.415   1_655  A
C1567      O1572   1.372       .  S
C1568      C1569   1.403       .  A
C1569      C1570   1.409   1_455  A
C1569      H1573   1.084       .  S
C1570      O1574   1.367       .  S
O1572      H1576   0.992       .  S
O1574      H1575   0.992   1_655  S
C1577      C1582   1.408       .  A
C1577      C3562   1.401       .  A
C1578      C1579   1.385   1_445  A
C1578      C3561   1.401       .  A
C1578      H1583   1.081       .  S
C1579      C3564   1.410   1_556  A
C1579      O1584   1.374       .  S
C1580      C1581   1.404   1_665  A
C1580      C3563   1.410       .  A
C1581      C1582   1.390       .  A
C1581      H1585   1.083   1_455  S
C1582      O1586   1.374       .  S
O1584      H1588   0.992   1_565  S
O1586      H1587   0.992       .  S
C1589      C1590   1.407       .  A
C1589      C1594   1.414       .  A
C1590      C1591   1.404       .  A
C1590      H1595   1.083       .  S
C1591      C1592   1.415       .  A
C1591      O1596   1.372       .  S
C1592      C1593   1.408       .  A
C1593      C1594   1.403       .  A
C1593      H1597   1.083       .  S
C1594      O1598   1.371       .  S
O1596      H1600   0.992       .  S
O1598      H1599   0.992       .  S
C1601      C1602   1.405   1_455  A
C1601      C1606   1.413       .  A
C1602      C1603   1.409   1_655  A
C1602      H1607   1.084       .  S
C1603      C1604   1.414       .  A
C1603      O1608   1.368       .  S
C1604      C1605   1.408       .  A
C1605      C1606   1.414       .  A
C1605      H1609   1.083       .  S
C1606      O1610   1.371       .  S
O1608      H1612   0.988       .  S
O1610      H1611   0.992       .  S
C1613      C1614   1.407       .  A
C1613      C1618   1.414   1_455  A
C1614      C1615   1.412   1_455  A
C1614      H1619   1.083       .  S
C1615      C1616   1.411       .  A
C1615      O1620   1.371   1_655  S
C1616      C1617   1.403       .  A
C1617      C1618   1.408       .  A
C1617      H1621   1.084       .  S
C1618      O1622   1.373       .  S
O1620      H1624   0.992       .  S
O1622      H1623   0.992       .  S
C1625      C1626   1.400   1_545  A
C1625      C1630   1.402       .  A
C1626      C1627   1.381   1_655  A
C1626      H1631   1.085       .  S
C1627      C1628   1.406   1_565  A
C1627      O1632   1.374       .  S
C1628      C1629   1.405   1_455  A
C1629      C1630   1.387       .  A
C1629      H1633   1.084       .  S
C1630      O1634   1.372       .  S
O1632      H1636   0.992       .  S
O1634      H1635   0.991       .  S
C1637      C1638   1.418       .  A
C1637      C1642   1.403       .  A
C1638      C1639   1.403       .  A
C1638      H1643   1.083       .  S
C1639      C1640   1.402       .  A
C1639      O1644   1.371       .  S
C1640      C1641   1.417       .  A
C1641      C1642   1.402       .  A
C1641      H1645   1.084       .  S
C1642      O1646   1.371   1_565  S
O1644      H1648   0.992       .  S
O1646      H1647   0.992       .  S
C1649      C1650   1.398       .  A
C1649      C1654   1.411       .  A
C1650      C1651   1.409       .  A
C1650      H1655   1.084       .  S
C1651      C1652   1.411   1_565  A
C1651      O1656   1.377   1_565  S
C1652      C1653   1.399       .  A
C1653      C1654   1.402   1_545  A
C1653      H1657   1.083       .  S
C1654      O1658   1.370       .  S
O1656      H1660   0.992   1_545  S
O1658      H1659   0.991       .  S
C1661      C1662   1.405       .  A
C1661      C1666   1.414       .  A
C1662      C1663   1.398       .  A
C1662      H3651   1.083       .  S
C1663      C1664   1.416       .  A
C1663      O1668   1.372       .  S
C1664      C1665   1.408       .  A
C1665      C1666   1.405       .  A
C1665      H1669   1.083       .  S
C1666      O1670   1.372       .  S
H1667      C3646   1.083       .  S
O1668      H1672   0.992       .  S
O1670      H1671   0.992       .  S
C1673      C1674   1.402       .  A
C1673      C1678   1.420       .  A
C1674      C1675   1.415       .  A
C1674      H1679   1.083       .  S
C1675      C1676   1.416       .  A
C1675      O1680   1.365       .  S
C1676      C1677   1.403       .  A
C1677      C1678   1.411       .  A
C1677      H1681   1.083       .  S
C1678      O1682   1.373       .  S
O1680      H1684   0.992       .  S
O1682      H1683   0.992       .  S
C1685      C1686   1.408       .  A
C1685      C1690   1.404   1_565  A
C1686      C1687   1.404       .  A
C1686      H1691   1.084       .  S
C1687      C1688   1.406       .  A
C1687      O1692   1.371       .  S
C1688      C1689   1.408       .  A
C1689      C1690   1.399   1_565  A
C1689      H1693   1.084       .  S
C1690      O1694   1.373       .  S
O1692      H1696   0.991       .  S
O1694      H1695   0.992       .  S
C1697      C1698   1.403       .  A
C1697      C1702   1.411       .  A
C1698      C1699   1.394       .  A
C1698      H1703   1.084       .  S
C1699      C1700   1.411       .  A
C1699      O1704   1.372       .  S
C1700      C1701   1.404       .  A
C1701      C1702   1.396       .  A
C1701      H1705   1.083       .  S
C1702      O1706   1.372       .  S
O1704      H1708   0.992       .  S
O1706      H1707   0.992       .  S
C1709      C1710   1.411       .  A
C1709      C1714   1.410       .  A
C1710      C1711   1.404       .  A
C1710      H1715   1.084       .  S
C1711      C1712   1.405       .  A
C1711      O1716   1.371       .  S
C1712      C1713   1.407       .  A
C1713      C1714   1.402       .  A
C1713      H1717   1.084       .  S
C1714      O1718   1.373       .  S
O1716      H1720   0.992       .  S
O1718      H1719   0.992       .  S
C1721      C1722   1.409       .  A
C1721      C1726   1.411       .  A
C1722      C1723   1.414       .  A
C1722      H1727   1.084       .  S
C1723      C1724   1.412       .  A
C1723      O1728   1.371       .  S
C1724      C1725   1.405       .  A
C1725      C1726   1.403       .  A
C1725      H1729   1.079       .  S
C1726      O1730   1.372       .  S
O1728      H1732   0.992       .  S
O1730      H1731   0.991       .  S
C1733      C1734   1.400   1_545  A
C1733      C3722   1.408   1_545  A
C1734      C1735   1.382       .  A
C1734      H1739   1.075   1_565  S
C1735      C1736   1.401       .  A
C1735      O1740   1.373       .  S
C1736      C1737   1.403       .  A
C1737      C3722   1.385       .  A
C1737      H3725   1.084       .  S
C1738      C3717   1.408   1_565  A
C1738      C3721   1.385       .  A
C1738      O1742   1.375   1_565  S
O1740      H1744   0.992       .  S
H1741      C3721   1.084       .  S
O1742      H1743   0.992       .  S
C1745      C1746   1.411       .  A
C1745      C1750   1.411       .  A
C1746      C1747   1.402       .  A
C1746      H1751   1.083       .  S
C1747      C1748   1.410       .  A
C1747      O1752   1.372       .  S
C1748      C1749   1.410       .  A
C1749      C1750   1.402       .  A
C1749      H1753   1.083       .  S
C1750      O1754   1.371       .  S
O1752      H1756   0.992       .  S
O1754      H1755   0.992       .  S
C1757      C1758   1.400       .  A
C1757      C1762   1.416       .  A
C1758      C1759   1.405       .  A
C1758      H1763   1.083       .  S
C1759      C1760   1.417       .  A
C1759      O1764   1.371       .  S
C1760      C1761   1.401       .  A
C1761      C1762   1.403       .  A
C1761      H1765   1.084       .  S
C1762      O1766   1.374       .  S
O1764      H1768   0.991       .  S
O1766      H1767   0.992       .  S
C1769      C1770   1.404       .  A
C1769      C1774   1.411       .  A
C1770      C1771   1.403       .  A
C1770      H1775   1.081       .  S
C1771      C1772   1.410       .  A
C1771      O1776   1.371       .  S
C1772      C1773   1.407       .  A
C1773      C1774   1.410       .  A
C1773      H1777   1.084       .  S
C1774      O1778   1.371       .  S
O1776      H1780   0.991       .  S
O1778      H1779   0.992       .  S
C1781      C1782   1.404       .  A
C1781      C1786   1.409       .  A
C1782      C1783   1.386       .  A
C1782      H1787   1.084   1_565  S
C1783      C1784   1.409       .  A
C1783      O1788   1.372       .  S
C1784      C1785   1.400       .  A
C1785      C1786   1.385       .  A
C1785      H1789   1.084       .  S
C1786      O1790   1.371       .  S
O1788      H1792   0.992       .  S
O1790      H1791   0.991       .  S
C1793      C1794   1.415       .  A
C1793      C1798   1.411       .  A
C1794      C1795   1.415   1_545  A
C1794      H1799   1.083       .  S
C1795      C1796   1.407       .  A
C1795      O1800   1.371       .  S
C1796      C1797   1.403       .  A
C1797      C1798   1.405   1_565  A
C1797      H1801   1.079       .  S
C1798      O1802   1.376       .  S
O1800      H1804   0.992   1_565  S
O1802      H1803   0.991       .  S
C1805      C1806   1.403   1_565  A
C1805      C1810   1.414       .  A
C1806      C1807   1.405   1_545  A
C1806      H1811   1.083       .  S
C1807      C1808   1.412       .  A
C1807      O1812   1.371       .  S
C1808      C1809   1.401       .  A
C1809      C1810   1.403       .  A
C1809      H1813   1.084       .  S
C1810      O1814   1.374       .  S
O1812      H1816   0.991       .  S
O1814      H1815   0.992       .  S
C1817      C1818   1.407       .  A
C1817      C1822   1.411       .  A
C1818      C1819   1.394       .  A
C1818      H1823   1.083       .  S
C1819      C1820   1.410       .  A
C1819      O3808   1.372   1_554  S
C1820      C1821   1.408       .  A
C1821      C1822   1.402       .  A
C1821      H1825   1.083       .  S
C1822      O1826   1.371       .  S
O1824      C3803   1.372       .  S
O1824      H1828   0.992       .  S
O1826      H1827   0.992       .  S
C1829      C1830   1.406       .  A
C1829      C1834   1.415       .  A
C1830      C1831   1.405       .  A
C1830      H1835   1.083       .  S
C1831      C1832   1.414       .  A
C1831      O1836   1.371       .  S
C1832      C1833   1.404       .  A
C1833      C1834   1.400       .  A
C1833      H1837   1.084       .  S
C1834      O1838   1.373       .  S
O1836      H1840   0.992       .  S
O1838      H1839   0.992       .  S
C1841      C1842   1.417       .  A
C1841      C1846   1.398       .  A
C1842      C1843   1.395       .  A
C1842      H1847   1.084       .  S
C1843      C1844   1.399       .  A
C1843      O1848   1.371       .  S
C1844      C1845   1.421       .  A
C1845      C1846   1.400       .  A
C1845      H1849   1.084       .  S
C1846      O1850   1.371       .  S
O1848      H1852   0.992       .  S
O1850      H1851   0.991       .  S
C1853      C1858   1.411   1_556  A
C1853      C3838   1.398       .  A
C1854      C1855   1.401       .  A
C1854      C3837   1.398       .  A
C1854      H1859   1.083       .  S
C1855      C1856   1.412       .  A
C1855      O1860   1.370       .  S
C1856      C1857   1.400       .  A
C1857      C3842   1.405       .  A
C1857      H1861   1.083       .  S
C1858      C3841   1.405   1_554  A
C1858      O1862   1.370       .  S
O1860      H1864   0.991       .  S
O1862      H1863   0.991       .  S
C1865      C1866   1.413       .  A
C1865      C1870   1.415       .  A
C1866      C1867   1.411       .  A
C1866      H1871   1.083       .  S
C1867      C1868   1.414       .  A
C1867      O1872   1.371       .  S
C1868      C1869   1.410       .  A
C1869      C1870   1.409       .  A
C1869      H1873   1.083       .  S
C1870      O1874   1.372       .  S
O1872      H1876   0.992       .  S
O1874      H1875   0.992       .  S
C1877      C1878   1.417       .  A
C1877      C1882   1.411       .  A
C1878      C1879   1.425       .  A
C1878      H1883   1.083       .  S
C1879      C1880   1.415       .  A
C1879      O1884   1.370       .  S
C1880      C1881   1.413       .  A
C1881      C1882   1.403       .  A
C1881      H1885   1.084       .  S
C1882      O1886   1.372       .  S
O1884      H1888   0.992       .  S
O1886      H1887   0.992       .  S
C1889      C1890   1.419       .  A
C1889      C1894   1.405       .  A
C1890      C1891   1.420       .  A
C1890      H1895   1.083       .  S
C1891      C1892   1.407       .  A
C1891      O1896   1.370       .  S
C1892      C2066   1.482       .  S
C1892      C1893   1.401       .  A
C1893      C1894   1.379       .  A
C1893      H1897   1.085       .  S
C1894      O1898   1.370       .  S
O1896      H1900   0.992       .  S
O1898      H1899   0.992       .  S
C1901      C1902   1.394       .  A
C1901      C1906   1.415       .  A
C1902      C1903   1.383       .  A
C1902      H1907   1.072       .  S
C1903      C1904   1.407       .  A
C1903      O1908   1.373       .  S
C1904      C1905   1.406       .  A
C1905      C1906   1.395       .  A
C1905      H1909   1.084       .  S
C1906      O1910   1.373       .  S
O1908      H1912   0.992       .  S
O1910      H1911   0.990       .  S
C1913      C1914   1.414       .  A
C1913      C1918   1.408       .  A
C1914      C1915   1.410       .  A
C1914      H1919   1.083       .  S
C1915      C1916   1.409       .  A
C1915      O1920   1.371       .  S
C1916      C1917   1.413       .  A
C1917      C1918   1.398       .  A
C1917      H1921   1.083       .  S
C1918      O1922   1.372       .  S
O1920      H1924   0.992       .  S
O1922      H1923   0.992       .  S
C1925      C1926   1.399       .  A
C1925      C1930   1.414       .  A
C1926      C1927   1.407       .  A
C1926      H1931   1.080       .  S
C1927      C1928   1.417       .  A
C1927      O1932   1.367       .  S
C1928      C1929   1.406       .  A
C1929      C1930   1.417       .  A
C1929      H1933   1.083       .  S
C1930      O1934   1.370       .  S
O1932      H1936   0.992       .  S
O1934      H1935   0.991       .  S
C1937      C1942   1.415       .  A
C1937      C3922   1.398       .  A
C1938      C1939   1.402   1_556  A
C1938      C3921   1.398       .  A
C1938      H1943   1.084       .  S
C1939      C1940   1.416       .  A
C1939      O1944   1.371       .  S
C1940      C3925   1.398   1_554  A
C1941      C1942   1.399       .  A
C1941      C3924   1.398       .  A
C1941      H1945   1.084       .  S
C1942      O1946   1.374       .  S
O1944      H1948   0.991       .  S
O1946      H1947   0.992       .  S
C1949      C1950   1.404       .  A
C1949      C1954   1.400       .  A
C1950      C1951   1.398       .  A
C1950      H1955   1.083       .  S
C1951      C1952   1.411       .  A
C1951      O1956   1.370       .  S
C1952      C1953   1.410       .  A
C1953      C1954   1.395       .  A
C1953      H1957   1.081       .  S
C1954      O1958   1.373       .  S
O1956      H1960   0.989       .  S
O1958      H1959   0.992       .  S
C1961      C1966   1.418       .  A
C1961      C3946   1.407       .  A
C1962      C1963   1.418       .  A
C1962      C3945   1.407   1_554  A
C1962      H1967   1.083       .  S
C1963      C1964   1.418       .  A
C1963      O1968   1.371       .  S
C1964      C3949   1.406       .  A
C1965      C1966   1.412       .  A
C1965      C3948   1.406       .  A
C1965      H1969   1.083       .  S
C1966      O1970   1.371       .  S
O1968      H1972   0.992       .  S
O1970      H1971   0.992       .  S
C1973      C1974   1.412       .  A
C1973      C1978   1.408       .  A
C1974      C1975   1.399       .  A
C1974      H1979   1.084       .  S
C1975      C1976   1.399       .  A
C1975      O1980   1.370       .  S
C1976      C1977   1.412       .  A
C1977      C1978   1.407       .  A
C1977      H1981   1.083       .  S
C1978      O1982   1.371       .  S
O1980      H1984   0.991       .  S
O1982      H1983   0.991       .  S
O1985     Ni1991   1.972       .  S
O1985      C2006   1.291       .  A
O1986     Ni2009   1.881       .  S
O1986      C1995   1.266       .  A
O1987     Ni1991   1.885       .  S
O1987     Ni2009   1.875       .  S
O1987     Ni2003   1.896       .  S
O1987      H2010   0.967       .  S
C1988      O2005   1.284       .  A
C1988      O1997   1.278       .  A
C1988      C3957   1.474       .  S
O1989     Ni2008   1.913       .  S
O1989      C1995   1.272       .  A
O1990     Ni2008   1.913       .  S
O1990      C1992   1.265       .  A
Ni1991     O1994   1.975       .  S
Ni1991     O1996   1.943       .  S
C1992      O2002   1.277       .  A
C1992      C3909   1.499       .  S
O1993     Ni2009   1.875       .  S
O1993      C1999   1.266       .  A
O1994      C1999   1.288       .  A
C1995      C3936   1.464       .  S
O1996      C1998   1.279       .  A
O1997     Ni2008   1.896       .  S
C1998      O2004   1.280       .  A
C1998      C3948   1.513       .  S
C1999      C3924   1.477       .  S
H2000      O2001   0.964       .  S
O2001     Ni2009   1.878       .  S
O2001     Ni2003   1.873       .  S
O2001     Ni2008   1.879       .  S
O2002     Ni2003   1.971       .  S
Ni2003     O2007   1.888       .  S
Ni2003     O2005   1.941       .  S
O2004     Ni2009   1.963       .  S
C2006      O2007   1.273       .  A
C2006      C3897   1.497       .  S
O2011     Ni2017   1.878       .  S
O2011      C2032   1.251       .  A
O2012     Ni2035   1.921       .  S
O2012      C2021   1.281       .  A
O2013     Ni2017   1.902       .  S
O2013     Ni2035   1.893       .  S
O2013     Ni2029   1.930       .  S
O2013      H2036   0.966       .  S
C2014      O2031   1.254       .  A
C2014      O2023   1.285       .  A
C2014      C3945   1.511       .  S
O2015     Ni2034   1.961       .  S
O2015      C2021   1.288       .  A
O2016     Ni2034   1.910       .  S
O2016      C2018   1.274       .  A
Ni2017     O2020   1.901       .  S
Ni2017     O2022   1.864       .  S
C2018      O2028   1.288       .  A
C2018      C3873   1.492       .  S
O2019     Ni2035   1.994       .  S
O2019      C2025   1.300       .  A
O2020      C2025   1.276       .  A
C2021      C3849   1.511       .  S
O2022      C2024   1.262       .  A
O2023     Ni2034   2.013       .  S
C2024      O2030   1.267       .  A
C2024      C3960   1.471       .  S
C2025      C3864   1.517       .  S
H2026      O2027   0.966       .  S
O2027     Ni2035   1.963       .  S
O2027     Ni2029   1.884       .  S
O2027     Ni2034   1.919       .  S
O2028     Ni2029   1.958       .  S
Ni2029     O2033   1.918       .  S
Ni2029     O2031   1.891       .  S
O2030     Ni2035   1.935       .  S
C2032      O2033   1.255       .  A
C2032      C3885   1.471       .  S
O2037     Ni2043   1.965       .  S
O2037      C2058   1.288       .  A
O2038     Ni2061   1.913       .  S
O2038      C2047   1.254       .  A
O2039     Ni2043   1.900       .  S
O2039     Ni2061   1.892       .  S
O2039     Ni2055   1.910       .  S
O2039      H2062   0.966       .  S
C2040      O2057   1.290       .  A
C2040      O2049   1.275       .  A
C2040      C3921   1.476       .  S
O2041     Ni2060   1.878       .  S
O2041      C2047   1.255       .  A
O2042     Ni2060   1.897       .  S
O2042      C2044   1.261       .  A
Ni2043     O2046   1.982       .  S
Ni2043     O2048   1.951       .  S
C2044      O2054   1.267       .  A
C2044      C3840   1.476       .  S
O2045     Ni2061   1.840       .  S
O2045      C2051   1.257       .  A
O2046      C2051   1.289       .  A
C2047      C3888   1.464       .  S
O2048      C2050   1.277       .  A
O2049     Ni2060   1.883       .  S
C2050      O2056   1.275       .  A
C2050      C3912   1.507       .  S
C2051      C3825   1.483       .  S
H2052      O2053   0.961       .  S
O2053     Ni2061   1.912       .  S
O2053     Ni2055   1.876       .  S
O2053     Ni2060   1.891       .  S
O2054     Ni2055   1.946       .  S
Ni2055     O2059   1.883       .  S
Ni2055     O2057   1.961       .  S
O2056     Ni2061   1.947       .  S
C2058      O2059   1.271       .  A
C2058      C3813   1.491       .  S
O2063     Ni2069   1.965       .  S
O2063      C2084   1.293       .  A
O2064     Ni2087   1.889       .  S
O2064      C2073   1.267       .  A
O2065     Ni2069   1.876       .  S
O2065     Ni2087   1.860       .  S
O2065     Ni2081   1.907       .  S
O2065      H2088   0.967       .  S
C2066      O2083   1.289       .  A
C2066      O2075   1.265       .  A
O2067     Ni2086   1.916       .  S
O2067      C2073   1.271       .  A
O2068     Ni2086   1.921       .  S
O2068      C2070   1.268       .  A
Ni2069     O2072   1.994       .  S
Ni2069     O2074   1.939       .  S
C2070      O2080   1.269       .  A
C2070      C3837   1.475       .  S
O2071     Ni2087   1.854       .  S
O2071      C2077   1.256       .  A
O2072      C2077   1.293       .  A
C2073      C3933   1.478       .  S
O2074      C2076   1.276       .  A
O2075     Ni2086   1.888       .  S
C2076      O2082   1.284       .  A
C2076      C3861   1.515       .  S
C2077      C3828   1.485       .  S
H2078      O2079   0.963       .  S
O2079     Ni2087   1.868       .  S
O2079     Ni2081   1.888       .  S
O2079     Ni2086   1.854       .  S
O2080     Ni2081   1.941       .  S
Ni2081     O2085   1.879       .  S
Ni2081     O2083   1.992       .  S
O2082     Ni2087   1.971       .  S
C2084      O2085   1.280       .  A
C2084      C3801   1.485       .  S
O2089     Ni2095   1.961       .  S
O2089      C2110   1.288       .  A
O2090     Ni2113   1.906       .  S
O2090      C2099   1.255       .  A
O2091     Ni2095   1.915       .  S
O2091     Ni2113   1.877       .  S
O2091     Ni2107   1.943       .  S
O2091      H2114   0.966       .  S
C2092      O2109   1.294       .  A
C2092      O2101   1.280       .  A
C2092      C3741   1.486       .  S
O2093     Ni2112   1.889       .  S
O2093      C2099   1.258       .  A
O2094     Ni2112   1.868       .  S
O2094      C2096   1.259       .  A
Ni2095     O2098   2.002       .  S
Ni2095     O2100   1.913       .  S
C2096      O2106   1.275       .  A
C2096      C3792   1.467       .  S
O2097     Ni2113   1.884       .  S
O2097      C2103   1.253       .  A
O2098      C2103   1.284       .  A
C2099      C3765   1.459       .  S
O2100      C2102   1.274       .  A
O2101     Ni2112   1.901       .  S
C2102      O2108   1.288       .  A
C2102      C3753   1.490       .  S
C2103      C3780   1.489       .  S
H2104      O2105   0.962       .  S
O2105     Ni2113   1.918       .  S
O2105     Ni2107   1.862       .  S
O2105     Ni2112   1.870       .  S
O2106     Ni2107   1.954       .  S
Ni2107     O2111   1.892       .  S
Ni2107     O2109   1.967       .  S
O2108     Ni2113   1.979       .  S
C2110      O2111   1.275       .  A
C2110      C3729   1.494       .  S
O2115     Ni2121   1.901       .  S
O2115      C2136   1.258       .  A
O2116     Ni2139   1.882       .  S
O2116      C2125   1.274       .  A
O2117     Ni2121   1.859       .  S
O2117     Ni2139   1.848       .  S
O2117      H2140   0.964       .  S
C2118      O2135   1.264       .  A
C2118      O2127   1.285       .  A
C2118      C3693   1.487       .  S
O2119     Ni2138   1.947       .  S
O2120     Ni2138   1.923       .  S
O2120      C2122   1.274       .  A
Ni2121     O2124   1.898       .  S
Ni2121     O2126   1.877       .  S
C2122      O2132   1.285       .  A
C2122      C3777   1.505       .  S
O2123     Ni2139   1.976       .  S
O2123      C2129   1.297       .  A
O2124      C2129   1.283       .  A
C2125      C3681   1.475       .  S
O2126      C2128   1.248       .  A
O2127     Ni2138   1.978       .  S
C2128      O2134   1.278       .  A
C2128      C3705   1.485       .  S
C2129      C3789   1.485   1_545  S
H2130      O2131   0.967       .  S
O2131     Ni2139   1.925       .  S
O2132     Ni2133   1.973       .  S
Ni2133     O2137   1.902       .  S
Ni2133     O2135   1.885       .  S
O2134     Ni2139   1.987       .  S
C2136      C3717   1.445       .  S
O2141     Ni2147   1.956       .  S
O2142     Ni2165   1.894       .  S
O2142      C2151   1.259       .  A
O2143     Ni2147   1.900       .  S
O2143     Ni2165   1.873       .  S
O2143      H2166   0.967   1_556  S
C2144      O2161   1.296       .  A
C2144      O2153   1.282       .  A
C2144      C3672   1.480       .  S
O2145     Ni2164   1.897       .  S
O2146     Ni2164   1.880       .  S
O2146      C2148   1.255       .  A
Ni2147     O2150   1.988       .  S
Ni2147     O2152   1.930       .  S
C2148      O2158   1.280       .  A
C2148      C3756   1.479       .  S
O2149     Ni2165   1.877       .  S
O2149      C2155   1.258       .  A
O2150      C2155   1.286       .  A
C2151      C3720   1.446       .  S
O2152      C2154   1.276       .  A
O2153     Ni2164   1.896       .  S
C2154      O2160   1.286       .  A
C2154      C3660   1.508       .  S
C2155      C3744   1.484       .  S
H2156      O2157   0.958       .  S
O2157     Ni2159   1.850       .  S
O2157     Ni2164   1.855       .  S
O2158     Ni2159   1.975       .  S
Ni2159     O2163   1.897       .  S
Ni2159     O2161   1.969       .  S
O2160     Ni2165   1.982       .  S
C2162      O2163   1.278       .  A
C2162      C3645   1.492       .  S
O2167     Ni2173   1.892   1_565  S
O2167      C2188   1.258       .  A
O2168     Ni2191   1.872       .  S
O2168      C2177   1.271       .  A
O2169     Ni2173   1.872       .  S
O2169     Ni2191   1.858       .  S
O2169     Ni2185   1.917       .  S
O2169      H2192   0.960       .  S
C2170      O2187   1.251       .  A
C2170      O2179   1.292   1_565  A
C2170      C3657   1.502       .  S
O2171     Ni2190   1.988       .  S
O2171      C2177   1.295       .  A
O2172     Ni2190   1.920       .  S
O2172      C2174   1.275       .  A
Ni2173     O2176   1.903       .  S
Ni2173     O2178   1.877       .  S
C2174      O2184   1.288       .  A
C2174      C3708   1.498       .  S
O2175     Ni2191   1.963       .  S
O2175      C2181   1.292       .  A
O2176      C2181   1.280       .  A
C2177      C3900   1.500       .  S
O2178      C2180   1.260       .  A
O2179     Ni2190   2.020       .  S
C2180      O2186   1.270       .  A
C2180      C3669   1.464   1_545  S
C2181      C3696   1.483       .  S
H2182      O2183   0.966       .  S
O2183     Ni2191   1.931       .  S
O2183     Ni2185   1.875       .  S
O2183     Ni2190   1.908       .  S
O2184     Ni2185   1.979       .  S
Ni2185     O2189   1.902   1_545  S
Ni2185     O2187   1.869   1_545  S
O2186     Ni2191   1.944       .  S
C2188      O2189   1.255       .  A
C2188      C3768   1.455       .  S
O2193     Ni2199   1.960       .  S
O2193      C2214   1.290       .  A
O2194     Ni2217   1.900       .  S
O2194      C2203   1.253       .  A
O2195     Ni2199   1.892       .  S
O2195     Ni2217   1.868       .  S
O2195     Ni2211   1.926       .  S
O2195      H2218   0.966       .  S
C2196      O2213   1.303       .  A
C2196      O2205   1.277       .  A
C2196      C3585   1.491   1_655  S
O2197     Ni2216   1.895       .  S
O2197      C2203   1.254       .  A
O2198     Ni2216   1.893       .  S
O2198      C2200   1.258       .  A
Ni2199     O2202   2.001       .  S
Ni2199     O2204   1.925       .  S
C2200      O2210   1.266       .  A
C2200      C3633   1.473       .  S
O2201     Ni2217   1.854       .  S
O2201      C2207   1.253       .  A
O2202      C2207   1.290       .  A
C2203      C3609   1.433   1_565  S
O2204      C2206   1.272       .  A
O2205     Ni2216   1.895       .  S
C2206      O2212   1.280       .  A
C2206      C3600   1.492       .  S
C2207      C3624   1.487       .  S
H2208      O2209   0.965       .  S
O2209     Ni2217   1.927       .  S
O2209     Ni2211   1.881       .  S
O2209     Ni2216   1.892       .  S
O2210     Ni2211   1.949       .  S
Ni2211     O2215   1.902       .  S
Ni2211     O2213   2.000       .  S
O2212     Ni2217   1.963       .  S
C2214      O2215   1.281       .  A
C2214      C3573   1.496       .  S
O2219     Ni2225   1.962       .  S
O2220     Ni2243   1.895       .  S
O2220      C2229   1.250   1_546  A
O2221     Ni2225   1.899       .  S
O2221     Ni2243   1.872       .  S
O2221      H2244   0.966   1_556  S
C2222      O2239   1.299       .  A
C2222      O2231   1.270       .  A
C2222      C3537   1.494       .  S
O2223     Ni2242   1.877       .  S
O2224     Ni2242   1.905       .  S
O2224      C2226   1.263       .  A
Ni2225     O2228   1.988       .  S
Ni2225     O2230   1.931       .  S
C2226      O2236   1.267       .  A
C2226      C3636   1.474       .  S
O2227     Ni2243   1.870       .  S
O2227      C2233   1.255       .  A
O2228      C2233   1.287       .  A
C2229      C3564   1.461       .  S
O2230      C2232   1.277       .  A
O2231     Ni2242   1.884       .  S
C2232      O2238   1.284       .  A
C2232      C3549   1.506       .  S
C2233      C3621   1.494   1_545  S
H2234      O2235   0.962       .  S
O2235     Ni2237   1.885       .  S
O2235     Ni2242   1.908       .  S
O2236     Ni2237   1.936       .  S
Ni2237     O2241   1.896       .  S
Ni2237     O2239   1.999       .  S
O2238     Ni2243   1.967       .  S
C2240      O2241   1.279       .  A
C2240      C3525   1.496       .  S
O2245     Ni2251   1.883   1_545  S
O2245      C2266   1.258       .  A
O2246     Ni2269   1.891       .  S
O2246      C2255   1.277       .  A
O2247     Ni2251   1.900       .  S
O2247     Ni2269   1.882       .  S
O2247      H2270   0.962       .  S
C2248      O2265   1.252       .  A
C2248      O2257   1.287       .  A
C2248      C3516   1.494       .  S
O2249     Ni2268   1.966       .  S
O2250     Ni2268   1.923       .  S
O2250      C2252   1.275       .  A
Ni2251     O2254   1.887       .  S
Ni2251     O2256   1.887       .  S
C2252      O2262   1.286       .  A
C2252      C3588   1.505       .  S
O2253     Ni2269   1.989       .  S
O2253      C2259   1.296       .  A
O2254      C2259   1.270       .  A
C2255      C3489   1.493       .  S
O2256      C2258   1.263       .  A
O2257     Ni2268   1.998       .  S
C2258      O2264   1.269       .  A
C2258      C3504   1.467       .  S
C2259      C3597   1.489       .  S
H2260      O2261   0.966       .  S
O2261     Ni2269   1.932       .  S
O2262     Ni2263   1.978       .  S
Ni2263     O2267   1.898   1_565  S
Ni2263     O2265   1.868       .  S
O2264     Ni2269   1.939       .  S
C2266      C3561   1.460       .  S
O2271     Ni2277   1.893       .  S
O2271      C2292   1.254       .  A
O2272     Ni2295   1.919       .  S
O2272      C2281   1.282       .  A
O2273     Ni2277   1.867       .  S
O2273     Ni2295   1.873       .  S
O2273     Ni2289   1.916       .  S
O2273      H2296   0.967       .  S
C2274      O2291   1.256       .  A
C2274      O2283   1.280       .  A
C2274      C3513   1.486       .  S
O2275     Ni2294   1.955       .  S
O2275      C2281   1.290       .  A
O2276     Ni2294   1.989       .  S
O2276      C2278   1.287       .  A
Ni2277     O2280   1.919       .  S
Ni2277     O2282   1.859       .  S
C2278      O2288   1.262       .  A
C2278      C3540   1.500       .  S
O2279     Ni2295   1.976       .  S
O2279      C2285   1.302       .  A
O2280      C2285   1.284       .  A
C2281      C3852   1.508       .  S
O2282      C2284   1.256       .  A
O2283     Ni2294   1.972       .  S
C2284      O2290   1.274       .  A
C2284      C3501   1.475       .  S
C2285      C3552   1.492       .  S
H2286      O2287   0.966       .  S
O2287     Ni2295   1.938       .  S
O2287     Ni2289   1.895       .  S
O2287     Ni2294   1.897       .  S
O2288     Ni2289   1.893       .  S
Ni2289     O2293   1.898       .  S
Ni2289     O2291   1.881       .  S
O2290     Ni2295   1.957       .  S
C2292      O2293   1.254       .  A
C2292      C3612   1.444       .  S
O2297     Ni2303   1.954       .  S
O2297      C2318   1.288       .  A
O2298     Ni2321   1.873       .  S
O2298      C2307   1.270       .  A
O2299     Ni2303   1.885       .  S
O2299     Ni2321   1.866       .  S
O2299     Ni2315   1.920       .  S
O2299      H2322   0.967       .  S
C2300      O2317   1.289       .  A
C2300      O2309   1.267       .  A
C2300      C3444   1.472       .  S
O2301     Ni2320   1.886       .  S
O2301      C2307   1.262       .  A
O2302     Ni2320   1.936       .  S
O2302      C2304   1.277       .  A
Ni2303     O2306   1.980       .  S
Ni2303     O2308   1.926       .  S
C2304      O2314   1.281       .  A
C2304      C3465   1.501       .  S
O2305     Ni2321   1.904       .  S
O2305      C2311   1.271       .  A
O2306      C2311   1.288       .  A
C2307      C3432   1.461       .  S
O2308      C2310   1.273       .  A
O2309     Ni2320   1.893       .  S
C2310      O2316   1.277       .  A
C2310      C3453   1.486       .  S
C2311      C3480   1.501       .  S
H2312      O2313   0.958       .  S
O2313     Ni2321   1.896       .  S
O2313     Ni2315   1.856       .  S
O2313     Ni2320   1.878       .  S
O2314     Ni2315   1.955       .  S
Ni2315     O2319   1.877       .  S
Ni2315     O2317   1.969       .  S
O2316     Ni2321   1.944       .  S
C2318      O2319   1.275       .  A
C2318      C3684   1.476       .  S
O2323     Ni2329   1.955       .  S
O2323      C2344   1.289       .  A
O2324     Ni2347   1.873       .  S
O2324      C2333   1.265       .  A
O2325     Ni2329   1.894       .  S
O2325     Ni2347   1.877       .  S
O2325     Ni2341   1.902       .  S
O2325      H2348   0.967       .  S
C2326      O2343   1.269       .  A
C2326      O2335   1.252       .  A
O2327     Ni2346   1.906       .  S
O2327      C2333   1.269       .  A
O2328     Ni2346   1.913       .  S
O2328      C2330   1.287       .  A
Ni2329     O2332   2.005       .  S
Ni2329     O2334   1.942       .  S
C2330      O2340   1.305       .  A
C2330      C3468   1.509       .  S
O2331     Ni2347   1.884       .  S
O2331      C2337   1.268       .  A
O2332      C2337   1.295       .  A
C2333      C3417   1.483       .  S
O2334      C2336   1.266       .  A
O2335     Ni2346   1.883       .  S
C2336      O2342   1.260       .  A
C2336      C3405   1.483       .  S
C2337      C3477   1.503       .  S
H2338      O2339   0.960       .  S
O2339     Ni2347   1.919       .  S
O2339     Ni2341   1.886       .  S
O2339     Ni2346   1.878       .  S
O2340     Ni2341   2.010       .  S
Ni2341     O2345   1.904       .  S
Ni2341     O2343   1.957       .  S
O2342     Ni2347   1.916       .  S
C2344      O2345   1.280       .  A
C2344      C3528   1.491       .  S
O2349     Ni2355   1.899       .  S
O2349      C2370   1.255       .  A
O2350     Ni2373   1.878       .  S
O2350      C2359   1.269       .  A
O2351     Ni2355   1.908       .  S
O2351     Ni2373   1.884       .  S
O2351     Ni2367   1.953       .  S
O2351      H2374   0.960       .  S
C2352      O2369   1.261       .  A
C2352      O2361   1.286       .  A
O2353     Ni2372   1.964       .  S
O2353      C2359   1.287       .  A
O2354     Ni2372   1.932       .  S
O2354      C2356   1.274       .  A
Ni2355     O2358   1.881       .  S
Ni2355     O2360   1.890       .  S
C2356      O2366   1.271       .  A
C2356      C3441   1.485       .  S
O2357     Ni2373   1.944       .  S
O2357      C2363   1.270       .  A
O2358      C2363   1.256       .  A
C2359      C3357   1.486       .  S
O2360      C2362   1.268       .  A
O2361     Ni2372   1.995       .  S
C2362      O2368   1.289       .  A
C2362      C3384   1.477       .  S
C2363      C3456   1.462       .  S
H2364      O2365   0.967       .  S
O2365     Ni2373   1.922       .  S
O2365     Ni2367   1.879       .  S
O2365     Ni2372   1.917       .  S
O2366     Ni2367   1.928       .  S
Ni2367     O2371   1.894       .  S
Ni2367     O2369   1.895       .  S
O2368     Ni2373   1.982       .  S
C2370      O2371   1.253       .  A
C2370      C3420   1.472       .  S
O2375     Ni2381   1.896       .  S
O2375      C2396   1.270       .  A
O2376     Ni2399   1.884       .  S
O2376      C2385   1.271       .  A
O2377     Ni2381   1.898       .  S
O2377     Ni2399   1.885       .  S
O2377     Ni2393   1.918       .  S
O2377      H2400   0.966       .  S
C2378      O2395   1.279       .  A
C2378      O2387   1.287       .  A
C2378      C3372   1.508       .  S
O2379     Ni2398   1.948       .  S
O2379      C2385   1.283       .  A
O2380     Ni2398   1.937       .  S
O2380      C2382   1.270       .  A
Ni2381     O2384   1.886       .  S
Ni2381     O2386   1.919       .  S
C2382      O2392   1.258       .  A
C2382      C3393   1.477       .  S
O2383     Ni2399   1.965       .  S
O2383      C2389   1.271       .  A
O2384      C2389   1.250       .  A
C2385      C3345   1.482       .  S
O2386      C2388   1.284       .  A
O2387     Ni2398   1.963       .  S
C2388      O2394   1.293       .  A
C2388      C3381   1.492       .  S
C2389      C3408   1.479       .  S
H2390      O2391   0.966       .  S
O2391     Ni2399   1.910       .  S
O2391     Ni2393   1.886       .  S
O2391     Ni2398   1.907       .  S
O2392     Ni2393   1.885       .  S
Ni2393     O2397   1.880       .  S
Ni2393     O2395   1.928       .  S
O2394     Ni2399   1.983       .  S
C2396      O2397   1.270       .  A
C2396      C3429   1.483       .  S
O2401      C2422   1.291       .  A
O2402     Ni2425   1.888       .  S
O2403     Ni2419   1.944       .  S
O2403      H2426   0.966       .  S
C2404      O2421   1.299       .  A
C2404      O2413   1.286       .  A
C2404      C3285   1.498       .  S
O2405     Ni2424   1.905       .  S
O2405      C2411   1.260       .  A
O2406     Ni2424   1.860       .  S
O2406      C2408   1.255       .  A
Ni2407     O2410   2.020       .  S
Ni2407     O2412   1.906       .  S
C2408      O2418   1.283       .  A
C2408      C3336   1.475       .  S
O2409     Ni2425   1.878       .  S
O2409      C2415   1.249       .  A
O2410      C2415   1.287       .  A
C2411      C3312   1.430       .  S
O2412      C2414   1.269       .  A
O2413     Ni2424   1.915       .  S
C2414      O2420   1.291       .  A
C2414      C3297   1.495       .  S
C2415      C3321   1.503       .  S
H2416      O2417   0.959       .  S
O2417     Ni2419   1.851       .  S
O2417     Ni2424   1.847       .  S
O2418     Ni2419   1.976       .  S
Ni2419     O2423   1.905       .  S
Ni2419     O2421   1.973       .  S
O2420     Ni2425   1.993       .  S
C2422      O2423   1.281       .  A
C2422      C3816   1.490       .  S
O2427     Ni2433   1.961       .  S
O2427      C2448   1.296       .  A
O2428     Ni2451   1.906       .  S
O2428      C2437   1.260       .  A
O2429     Ni2433   1.889       .  S
O2429     Ni2451   1.867       .  S
O2429     Ni2445   1.920       .  S
O2429      H2452   0.965       .  S
C2430      O2447   1.284       .  A
C2430      O2439   1.254       .  A
C2430      C3249   1.474       .  S
O2431     Ni2450   1.904       .  S
O2431      C2437   1.249       .  A
O2432     Ni2450   1.951       .  S
O2432      C2434   1.295       .  A
Ni2433     O2436   1.946       .  S
Ni2433     O2438   1.971       .  S
C2434      O2444   1.291       .  A
C2434      C3333   1.503       .  S
O2435     Ni2451   1.959       .  S
O2435      C2441   1.289       .  A
O2436      C2441   1.285       .  A
C2437      C3273   1.440       .  S
O2438      C2440   1.277       .  A
O2439     Ni2450   1.885       .  S
C2440      O2446   1.249       .  A
C2440      C3261   1.486       .  S
C2441      C3324   1.513       .  S
H2442      O2443   0.967       .  S
O2443     Ni2451   1.943       .  S
O2443     Ni2445   1.861       .  S
O2443     Ni2450   1.874       .  S
O2444     Ni2445   1.963       .  S
Ni2445     O2449   1.890       .  S
Ni2445     O2447   1.977       .  S
O2446     Ni2451   1.881       .  S
C2448      O2449   1.282       .  A
C2448      C3237   1.489       .  S
O2453     Ni2459   1.907       .  S
O2453      C2474   1.248       .  A
O2454     Ni2477   1.886       .  S
O2454      C2463   1.280       .  A
O2455     Ni2459   1.872       .  S
O2455     Ni2477   1.857       .  S
O2455     Ni2471   1.941       .  S
O2455      H2478   0.967       .  S
C2456      O2473   1.290       .  A
C2456      O2465   1.285       .  A
C2456      C3216   1.515       .  S
O2457     Ni2476   1.957       .  S
O2457      C2463   1.296       .  A
O2458     Ni2476   1.972       .  S
O2458      C2460   1.276       .  A
Ni2459     O2462   1.885       .  S
Ni2459     O2464   1.960       .  S
C2460      O2470   1.249       .  A
C2460      C3288   1.489       .  S
O2461     Ni2477   1.979       .  S
O2461      C2467   1.285       .  A
O2462      C2467   1.253       .  A
C2463      C3360   1.485       .  S
O2464      C2466   1.297       .  A
O2465     Ni2476   1.943       .  S
C2466      O2472   1.290       .  A
C2466      C3228   1.508       .  S
C2467      C3300   1.476       .  S
H2468      O2469   0.965       .  S
O2469     Ni2477   1.918       .  S
O2469     Ni2471   1.864       .  S
O2469     Ni2476   1.885       .  S
O2470     Ni2471   1.884       .  S
Ni2471     O2475   1.910       .  S
Ni2471     O2473   1.960       .  S
O2472     Ni2477   1.959       .  S
C2474      O2475   1.262       .  A
C2474      C3276   1.439       .  S
O2479     Ni2485   1.905       .  S
O2480     Ni2503   1.906       .  S
O2480      C2489   1.281       .  A
O2481     Ni2485   1.847       .  S
O2481     Ni2503   1.852       .  S
C2482      O2499   1.249       .  A
C2482      O2491   1.282       .  A
C2482      C3213   1.497       .  S
O2483     Ni2502   1.938       .  S
O2484     Ni2502   1.896       .  S
O2484      C2486   1.267       .  A
Ni2485     O2488   1.920       .  S
Ni2485     O2490   1.854       .  S
C2486      O2496   1.292       .  A
C2486      C3252   1.491       .  S
O2487     Ni2503   1.971       .  S
O2487      C2493   1.298       .  A
O2488      C2493   1.287       .  A
C2489      C3201   1.480       .  S
O2490      C2492   1.255       .  A
O2491     Ni2502   2.008       .  S
C2492      O2498   1.285       .  A
C2492      C3225   1.477       .  S
C2493      C3264   1.501       .  S
H2494      O2495   0.966       .  S
O2495     Ni2497   1.865       .  S
O2495     Ni2502   1.918       .  S
O2496     Ni2497   1.999       .  S
Ni2497     O2501   1.889       .  S
Ni2497     O2499   1.885       .  S
O2498     Ni2503   1.981       .  S
C2500      O2501   1.252       .  A
C2500      C3309   1.430       .  S
O2505     Ni2511   1.960       .  S
O2505      C2526   1.288       .  A
O2506     Ni2529   1.905       .  S
O2506      C2515   1.248       .  A
O2507     Ni2511   1.906       .  S
O2507     Ni2529   1.873       .  S
O2507     Ni2523   1.931       .  S
O2507      H2530   0.966       .  S
C2508      O2525   1.289       .  A
C2508      O2517   1.269       .  A
C2508      C3153   1.473       .  S
O2509     Ni2528   1.880       .  S
O2509      C2515   1.258       .  A
O2510     Ni2528   1.890       .  S
O2510      C2512   1.265       .  A
Ni2511     O2514   1.997       .  S
Ni2511     O2516   1.912       .  S
C2512      O2522   1.266       .  A
C2512      C3189   1.462       .  S
O2513     Ni2529   1.859       .  S
O2513      C2519   1.248       .  A
O2514      C2519   1.286       .  A
C2515      C3141   1.468       .  S
O2516      C2518   1.272       .  A
O2517     Ni2528   1.881       .  S
C2518      O2524   1.287       .  A
C2518      C3165   1.495       .  S
C2519      C3180   1.494       .  S
H2520      O2521   0.962       .  S
O2521     Ni2529   1.930       .  S
O2521     Ni2523   1.891       .  S
O2521     Ni2528   1.910       .  S
O2522     Ni2523   1.925       .  S
Ni2523     O2527   1.893       .  S
Ni2523     O2525   1.968       .  S
O2524     Ni2529   1.978       .  S
C2526      O2527   1.275       .  A
C2526      C3732   1.493       .  S
O2531     Ni2537   1.957       .  S
O2531      C2552   1.288       .  A
O2532     Ni2555   1.907       .  S
O2532      C2541   1.248       .  A
O2533     Ni2537   1.903       .  S
O2533     Ni2555   1.877       .  S
O2533     Ni2549   1.934       .  S
O2533      H2556   0.966       .  S
C2534      O2551   1.294       .  A
C2534      O2543   1.268       .  A
C2534      C3105   1.475       .  S
O2535     Ni2554   1.873       .  S
O2535      C2541   1.254       .  A
O2536     Ni2554   1.891       .  S
O2536      C2538   1.264       .  A
Ni2537     O2540   1.996       .  S
Ni2537     O2542   1.912       .  S
C2538      O2548   1.265       .  A
C2538      C3192   1.463       .  S
O2539     Ni2555   1.855       .  S
O2539      C2545   1.249       .  A
O2540      C2545   1.287       .  A
C2541      C3129   1.467       .  S
O2542      C2544   1.271       .  A
O2543     Ni2554   1.873       .  S
C2544      O2550   1.283       .  A
C2544      C3120   1.488       .  S
C2545      C3177   1.493       .  S
H2546      O2547   0.965       .  S
O2547     Ni2555   1.931       .  S
O2547     Ni2549   1.895       .  S
O2547     Ni2554   1.912       .  S
O2548     Ni2549   1.927       .  S
Ni2549     O2553   1.903       .  S
Ni2549     O2551   1.980       .  S
O2550     Ni2555   1.968       .  S
C2552      O2553   1.278       .  A
C2552      C3576   1.497       .  S
O2557     Ni2563   1.876       .  S
O2557      C2578   1.255       .  A
O2558     Ni2581   1.896       .  S
O2558      C2567   1.277       .  A
O2559     Ni2563   1.911       .  S
O2559     Ni2581   1.893       .  S
O2559     Ni2575   1.938       .  S
O2559      H2582   0.966       .  S
C2560      O2577   1.253       .  A
C2560      O2569   1.285       .  A
C2560      C3093   1.486       .  S
O2561     Ni2580   1.941       .  S
O2561      C2567   1.282       .  A
O2562     Ni2580   1.902       .  S
O2562      C2564   1.267       .  A
Ni2563     O2566   1.881       .  S
Ni2563     O2568   1.898       .  S
C2564      O2574   1.280       .  A
C2564      C3156   1.476       .  S
O2565     Ni2581   1.987       .  S
O2565      C2571   1.296       .  A
O2566      C2571   1.270       .  A
C2567      C3204   1.483       .  S
O2568      C2570   1.263       .  A
O2569     Ni2580   1.982       .  S
C2570      O2576   1.262       .  A
C2570      C3084   1.462       .  S
H2572      O2573   0.966       .  S
O2573     Ni2581   1.931       .  S
O2573     Ni2575   1.876       .  S
O2573     Ni2580   1.898       .  S
O2574     Ni2575   1.960       .  S
Ni2575     O2579   1.907       .  S
Ni2575     O2577   1.860       .  S
O2576     Ni2581   1.923       .  S
C2578      O2579   1.250       .  A
C2578      C3132   1.466       .  S
O2583     Ni2589   1.878       .  S
O2583      C2604   1.257       .  A
O2584     Ni2607   1.896       .  S
O2584      C2593   1.276       .  A
O2585     Ni2589   1.916       .  S
O2585     Ni2607   1.895       .  S
O2585     Ni2601   1.940       .  S
O2585      H2608   0.965       .  S
C2586      O2603   1.251       .  A
C2586      O2595   1.281       .  A
C2586      C3096   1.489       .  S
O2587     Ni2606   1.930       .  S
O2587      C2593   1.280       .  A
O2588     Ni2606   1.900       .  S
O2588      C2590   1.268       .  A
Ni2589     O2592   1.881       .  S
Ni2589     O2594   1.891       .  S
C2590      O2600   1.284       .  A
C2590      C3108   1.487       .  S
O2591     Ni2607   1.979       .  S
O2591      C2597   1.293       .  A
O2592      C2597   1.269       .  A
C2593      C3069   1.480       .  S
O2594      C2596   1.265       .  A
O2595     Ni2606   1.974       .  S
C2596      O2602   1.265       .  A
C2596      C3081   1.461       .  S
C2597      C3117   1.481       .  S
H2598      O2599   0.966       .  S
O2599     Ni2607   1.936       .  S
O2599     Ni2601   1.876       .  S
O2599     Ni2606   1.907       .  S
O2600     Ni2601   1.968       .  S
Ni2601     O2605   1.903       .  S
Ni2601     O2603   1.864       .  S
O2602     Ni2607   1.922       .  S
C2604      O2605   1.247       .  A
C2604      C3144   1.467       .  S
O2609     Ni2615   1.890       .  S
O2609      C2630   1.257       .  A
O2610     Ni2633   1.875       .  S
O2610      C2619   1.271       .  A
O2611     Ni2615   1.876       .  S
O2611     Ni2633   1.853       .  S
O2611     Ni2627   1.908       .  S
O2611      H2634   0.957       .  S
C2612      O2629   1.254       .  A
C2612      O2621   1.285       .  A
C2612      C3045   1.484       .  S
O2613     Ni2632   1.956       .  S
O2613      C2619   1.286       .  A
O2614     Ni2632   1.912       .  S
O2614      C2616   1.271       .  A
Ni2615     O2618   1.893       .  S
Ni2615     O2620   1.879       .  S
C2616      O2626   1.289       .  A
C2616      C3021   1.495       .  S
O2617     Ni2633   1.972       .  S
O2617      C2623   1.295       .  A
O2618      C2623   1.278       .  A
C2619      C3348   1.484       .  S
O2620      C2622   1.258       .  A
O2621     Ni2632   1.993       .  S
C2622      O2628   1.271       .  A
C2622      C3057   1.469       .  S
C2623      C3036   1.483       .  S
H2624      O2625   0.966       .  S
O2625     Ni2633   1.936       .  S
O2625     Ni2627   1.882       .  S
O2625     Ni2632   1.910       .  S
O2626     Ni2627   1.982       .  S
Ni2627     O2631   1.909       .  S
Ni2627     O2629   1.867       .  S
O2628     Ni2633   1.951       .  S
C2630      O2631   1.259       .  A
C2630      C3009   1.455       .  S
O2635      C2656   1.284       .  A
O2636     Ni2659   1.895       .  S
O2637     Ni2653   1.923       .  S
O2637      H2660   0.967       .  S
C2638      O2655   1.295       .  A
C2638      O2647   1.276       .  A
C2638      C3060   1.479       .  S
O2639     Ni2658   1.885       .  S
O2639      C2645   1.262       .  A
O2640     Ni2658   1.887       .  S
O2640      C2642   1.254       .  A
Ni2641     O2644   1.967       .  S
Ni2641     O2646   1.920       .  S
C2642      O2652   1.277       .  A
C2642      C2985   1.478       .  S
O2643     Ni2659   1.886       .  S
O2643      C2649   1.264       .  A
O2644      C2649   1.282       .  A
C2645      C2997   1.460       .  S
O2646      C2648   1.274       .  A
O2647     Ni2658   1.884       .  S
C2648      O2654   1.282       .  A
C2648      C3048   1.493       .  S
C2649      C2973   1.479       .  S
H2650      O2651   0.963       .  S
O2651     Ni2653   1.860       .  S
O2651     Ni2658   1.871       .  S
O2652     Ni2653   1.969       .  S
Ni2653     O2657   1.886       .  S
Ni2653     O2655   1.979       .  S
O2654     Ni2659   1.964       .  S
C2656      O2657   1.275       .  A
C2656      C3072   1.477       .  S
O2661     Ni2667   1.908   1_655  S
O2662     Ni2685   1.891       .  S
O2662      C2671   1.277       .  A
O2663     Ni2667   1.857       .  S
O2663     Ni2685   1.856       .  S
O2663      H2686   0.963       .  S
C2664      O2681   1.261       .  A
C2664      O2673   1.287       .  A
C2664      C3033   1.490   1_455  S
O2665     Ni2684   1.952       .  S
O2666     Ni2684   1.925       .  S
O2666      C2668   1.275       .  A
Ni2667     O2670   1.899       .  S
Ni2667     O2672   1.887       .  S
C2668      O2678   1.285       .  A
C2668      C2949   1.511       .  S
O2669     Ni2685   1.968       .  S
O2669      C2675   1.295       .  A
O2670      C2675   1.283       .  A
C2671      C3804   1.484       .  S
O2672      C2674   1.253       .  A
O2673     Ni2684   1.984       .  S
C2674      O2680   1.277       .  A
C2674      C3024   1.481       .  S
C2675      C2964   1.480       .  S
H2676      O2677   0.967   1_554  S
O2677     Ni2679   1.867       .  S
O2677     Ni2684   1.891       .  S
O2678     Ni2679   1.976       .  S
Ni2679     O2683   1.876   1_455  S
Ni2679     O2681   1.880       .  S
O2680     Ni2685   1.976       .  S
C2682      O2683   1.265       .  A
C2682      C3000   1.452       .  S
O2687     Ni2693   1.978       .  S
O2687      C2708   1.293       .  A
O2688     Ni2711   1.910       .  S
O2688      C2697   1.256       .  A
O2689     Ni2693   1.910       .  S
O2689     Ni2711   1.879       .  S
O2689     Ni2705   1.936       .  S
O2689      H2712   0.966       .  S
C2690      O2707   1.287       .  A
C2690      O2699   1.283       .  A
C2690      C2976   1.479       .  S
O2691     Ni2710   1.894       .  S
O2691      C2697   1.256       .  A
O2692     Ni2710   1.869       .  S
O2692      C2694   1.259       .  A
Ni2693     O2696   2.015       .  S
Ni2693     O2698   1.912       .  S
C2694      O2704   1.269       .  A
C2694      C2961   1.463       .  S
O2695     Ni2711   1.870       .  S
O2695      C2701   1.248       .  A
O2696      C2701   1.288       .  A
C2697      C3012   1.453       .  S
O2698      C2700   1.274       .  A
O2699     Ni2710   1.914       .  S
C2700      O2706   1.288       .  A
C2700      C2988   1.485       .  S
C2701      C2952   1.490       .  S
H2702      O2703   0.964       .  S
O2703     Ni2711   1.911       .  S
O2703     Ni2705   1.862       .  S
O2703     Ni2710   1.875       .  S
O2704     Ni2705   1.940       .  S
Ni2705     O2709   1.872       .  S
Ni2705     O2707   1.941       .  S
O2706     Ni2711   1.978       .  S
C2708      O2709   1.265       .  A
C2708      C2937   1.497       .  S
O2713     Ni2719   1.890       .  S
O2713      C2734   1.257       .  A
O2714     Ni2737   1.895       .  S
O2714      C2723   1.274       .  A
O2715     Ni2719   1.916       .  S
O2715     Ni2737   1.886       .  S
O2715     Ni2731   1.946       .  S
O2715      H2738   0.966       .  S
C2716      O2733   1.258       .  A
C2716      O2725   1.282       .  A
C2716      C2913   1.508       .  S
O2717     Ni2736   1.951       .  S
O2717      C2723   1.285       .  A
O2718     Ni2736   1.913       .  S
O2718      C2720   1.275       .  A
Ni2719     O2722   1.913       .  S
Ni2719     O2724   1.870       .  S
C2720      O2730   1.291       .  A
C2720      C2889   1.493       .  S
O2721     Ni2737   1.990       .  S
O2721      C2727   1.296       .  A
O2722      C2727   1.273       .  A
C2723      C3648   1.495       .  S
O2724      C2726   1.263       .  A
O2725     Ni2736   1.994       .  S
C2726      O2732   1.268       .  A
C2726      C2925   1.466       .  S
H2728      O2729   0.966       .  S
O2729     Ni2737   1.957       .  S
O2729     Ni2731   1.881       .  S
O2729     Ni2736   1.915       .  S
O2730     Ni2731   1.975       .  S
Ni2731     O2735   1.917       .  S
Ni2731     O2733   1.895       .  S
O2732     Ni2737   1.935       .  S
C2734      O2735   1.253       .  A
C2734      C2901   1.467       .  S
O2739     Ni2745   1.954       .  S
O2739      C2760   1.289       .  A
O2740     Ni2763   1.897       .  S
O2740      C2749   1.264       .  A
O2741     Ni2745   1.891       .  S
O2741     Ni2763   1.876       .  S
O2741     Ni2757   1.913       .  S
O2741      H2764   0.967       .  S
C2742      O2759   1.299       .  A
C2742      O2751   1.279       .  A
C2742      C2928   1.479       .  S
O2743     Ni2762   1.886       .  S
O2743      C2749   1.259       .  A
O2744     Ni2762   1.899       .  S
O2744      C2746   1.252       .  A
Ni2745     O2748   1.972       .  S
Ni2745     O2750   1.941       .  S
C2746      O2756   1.288       .  A
C2746      C2841   1.543       .  S
O2747     Ni2763   1.880       .  S
O2747      C2753   1.268       .  A
O2748      C2753   1.286       .  A
C2749      C2865   1.425       .  S
O2750      C2752   1.276       .  A
O2751     Ni2762   1.878       .  S
C2752      O2758   1.275       .  A
C2752      C2916   1.497       .  S
C2753      C2856   1.474       .  S
H2754      O2755   0.963       .  S
O2755     Ni2763   1.892       .  S
O2755     Ni2757   1.857       .  S
O2755     Ni2762   1.839       .  S
O2756     Ni2757   2.034       .  S
Ni2757     O2761   1.903       .  S
Ni2757     O2759   1.978       .  S
O2758     Ni2763   1.953       .  S
C2760      O2761   1.281       .  A
C2760      C3492   1.493       .  S
O2765     Ni2771   1.967       .  S
O2765      C2786   1.295       .  A
O2766     Ni2789   1.905       .  S
O2766      C2775   1.254       .  A
O2767     Ni2771   1.885       .  S
O2767     Ni2789   1.851       .  S
O2767     Ni2783   1.913       .  S
O2767      H2790   0.967       .  S
C2768      O2785   1.301       .  A
C2768      O2777   1.278       .  A
C2768      C2892   1.503       .  S
O2769     Ni2788   1.896       .  S
O2769      C2775   1.252       .  A
O2770     Ni2788   1.883       .  S
O2770      C2772   1.257       .  A
Ni2771     O2774   2.020       .  S
Ni2771     O2776   1.934       .  S
C2772      O2782   1.269       .  A
C2772      C2829   1.471       .  S
O2773     Ni2789   1.849       .  S
O2773      C2779   1.242       .  A
O2774      C2779   1.293       .  A
C2775      C2868   1.431       .  S
O2776      C2778   1.274       .  A
O2777     Ni2788   1.880       .  S
C2778      O2784   1.286       .  A
C2778      C2880   1.515       .  S
C2779      C2820   1.491       .  S
H2780      O2781   0.965       .  S
O2781     Ni2789   1.912       .  S
O2781     Ni2783   1.883       .  S
O2781     Ni2788   1.871       .  S
O2782     Ni2783   1.954       .  S
Ni2783     O2787   1.900       .  S
Ni2783     O2785   1.995       .  S
O2784     Ni2789   1.993       .  S
C2786      O2787   1.284       .  A
C2786      C3240   1.496       .  S
O2791     Ni2797   1.996       .  S
O2791      C2812   1.296       .  A
O2792     Ni2815   1.915       .  S
O2792      C2801   1.254       .  A
O2793     Ni2797   1.891       .  S
O2793     Ni2815   1.877       .  S
O2793     Ni2809   1.903       .  S
O2793      H2816   0.967       .  S
C2794      O2811   1.281       .  A
C2794      O2803   1.274       .  A
C2794      C2853   1.475       .  S
O2795     Ni2814   1.887       .  S
O2795      C2801   1.253       .  A
O2796     Ni2814   1.898       .  S
O2796      C2798   1.261       .  A
Ni2797     O2800   2.008       .  S
Ni2797     O2802   1.970       .  S
C2798      O2808   1.260       .  A
C2798      C2832   1.472       .  S
O2799     Ni2815   1.833       .  S
O2799      C2805   1.252       .  A
O2800      C2805   1.297       .  A
C2801      C2904   1.464       .  S
O2802      C2804   1.282       .  A
O2803     Ni2814   1.898       .  S
C2804      O2810   1.283       .  A
C2804      C2844   1.532       .  S
C2805      C2817   1.493       .  S
H2806      O2807   0.966       .  S
O2807     Ni2815   1.920       .  S
O2807     Ni2809   1.879       .  S
O2807     Ni2814   1.910       .  S
O2808     Ni2809   1.928       .  S
Ni2809     O2813   1.846       .  S
Ni2809     O2811   1.940       .  S
O2810     Ni2815   1.958       .  S
C2812      O2813   1.259       .  A
C2812      C2940   1.499       .  S
C2817      C2818   1.425       .  A
C2818      C2819   1.400       .  A
C2818      H2823   1.083       .  S
C2819      O2824   1.372       .  S
C2820      C2821   1.425       .  A
C2821      C2822   1.401       .  A
C2821      H2825   1.084       .  S
C2822      O2826   1.371       .  S
O2824      H2828   0.991       .  S
O2826      H2827   0.992       .  S
C2829      C2830   1.397       .  A
C2829      C2834   1.414       .  A
C2830      C2831   1.400       .  A
C2830      H2835   1.083       .  S
C2831      C2832   1.413       .  A
C2831      O2836   1.369       .  S
C2832      C2833   1.397       .  A
C2833      C2834   1.405       .  A
C2833      H2837   1.083       .  S
C2834      O2838   1.369       .  S
O2836      H2840   0.991       .  S
O2838      H2839   0.991       .  S
C2841      C2842   1.420       .  A
C2841      C2846   1.427       .  A
C2842      H2847   1.083       .  S
C2843      C2844   1.424       .  A
C2843      O2848   1.370       .  S
C2844      C2845   1.396       .  A
C2845      H2849   1.081       .  S
C2846      O2850   1.376       .  S
O2848      H2852   0.992       .  S
O2850      H2851   0.990       .  S
C2853      C2854   1.405       .  A
C2853      C2858   1.405       .  A
C2854      C2855   1.399       .  A
C2854      H2859   1.084       .  S
C2855      C2856   1.408       .  A
C2855      O2860   1.373       .  S
C2856      C2857   1.408       .  A
C2857      C2858   1.401       .  A
C2857      H2861   1.084       .  S
C2858      O2862   1.372       .  S
O2860      H2864   0.992       .  S
O2862      H2863   0.992       .  S
C2865      C2866   1.399       .  A
C2865      C2870   1.401       .  A
C2866      C2867   1.394       .  A
C2866      H2871   1.084       .  S
C2867      C2868   1.405       .  A
C2867      O2872   1.371       .  S
C2868      C2869   1.397       .  A
C2869      C2870   1.374       .  A
C2869      H2873   1.084       .  S
C2870      O2874   1.375       .  S
O2872      H2876   0.992       .  S
O2874      H2875   0.992       .  S
C2877      C2882   1.413   1_554  A
C2878      H2883   1.084       .  S
C2879      C2880   1.411   1_554  A
C2879      O2884   1.371       .  S
C2880      C2881   1.415       .  A
C2881      C2882   1.423       .  A
C2881      H2885   1.083       .  S
C2882      O2886   1.370       .  S
O2886      H2887   0.992       .  S
C2889      C2890   1.414       .  A
C2889      C2894   1.404       .  A
C2890      C2891   1.419       .  A
C2890      H2895   1.083       .  S
C2891      C2892   1.412       .  A
C2891      O2896   1.371       .  S
C2892      C2893   1.411       .  A
C2893      C2894   1.393       .  A
C2893      H2897   1.083       .  S
C2894      O2898   1.375       .  S
O2896      H2900   0.992       .  S
O2898      H2899   0.991       .  S
C2901      C2902   1.405       .  A
C2901      C2906   1.405       .  A
C2902      C2903   1.393       .  A
C2902      H2907   1.084       .  S
C2903      C2904   1.404       .  A
C2903      O2908   1.370       .  S
C2904      C2905   1.403       .  A
C2905      C2906   1.382       .  A
C2905      H2909   1.085       .  S
C2906      O2910   1.370       .  S
O2908      H2912   0.990       .  S
O2910      H2911   0.991       .  S
C2913      C2914   1.415       .  A
C2913      C2918   1.412       .  A
C2914      C2915   1.409       .  A
C2914      H2919   1.083       .  S
C2915      C2916   1.406       .  A
C2915      O2920   1.371       .  S
C2916      C2917   1.409       .  A
C2917      C2918   1.412       .  A
C2917      H2921   1.083       .  S
C2918      O2922   1.371       .  S
O2920      H2924   0.992       .  S
O2922      H2923   0.991       .  S
C2925      C2926   1.411       .  A
C2926      C2927   1.402       .  A
C2926      H2931   1.084       .  S
C2927      O2932   1.371       .  S
C2928      C2929   1.413       .  A
C2929      C2930   1.399       .  A
C2929      H2933   1.084       .  S
C2930      O2934   1.373       .  S
O2932      H2936   0.991       .  S
O2934      H2935   0.992       .  S
C2937      C2938   1.395       .  A
C2937      C2942   1.426       .  A
C2938      C2939   1.397       .  A
C2938      H2943   1.084       .  S
C2939      C2940   1.428       .  A
C2939      O2944   1.373       .  S
C2940      C2941   1.399       .  A
C2941      C2942   1.408       .  A
C2941      H2945   1.083       .  S
C2942      O2946   1.372       .  S
O2944      H2948   0.992       .  S
O2946      H2947   0.992       .  S
C2949      C2950   1.410       .  A
C2949      C2954   1.418       .  A
C2950      C2951   1.409       .  A
C2950      H2955   1.083       .  S
C2951      C2952   1.411       .  A
C2951      O2956   1.371       .  S
C2952      C2953   1.407       .  A
C2953      C2954   1.413       .  A
C2953      H2957   1.084       .  S
C2954      O2958   1.371       .  S
O2956      H2960   0.992       .  S
O2958      H2959   0.992       .  S
C2961      C2962   1.407       .  A
C2961      C2966   1.403       .  A
C2962      C2963   1.402       .  A
C2962      H2967   1.084       .  S
C2963      C2964   1.406       .  A
C2963      O2968   1.371       .  S
C2964      C2965   1.409       .  A
C2965      C2966   1.398       .  A
C2965      H2969   1.084       .  S
C2966      O2970   1.372       .  S
O2968      H2972   0.991       .  S
O2970      H2971   0.991       .  S
C2973      C2974   1.407   1_655  A
C2973      C2978   1.410       .  A
C2974      C2975   1.401       .  A
C2974      H2979   1.084       .  S
C2975      C2976   1.407       .  A
C2975      O2980   1.371       .  S
C2976      C2977   1.405   1_455  A
C2977      C2978   1.400       .  A
C2977      H2981   1.084       .  S
C2978      O2982   1.373       .  S
O2980      H2984   0.992       .  S
O2982      H2983   0.992       .  S
C2985      C2986   1.407   1_655  A
C2985      C2990   1.408       .  A
C2986      C2987   1.408       .  A
C2986      H2991   1.084       .  S
C2987      C2988   1.408       .  A
C2987      O2992   1.371       .  S
C2988      C2989   1.404       .  A
C2989      C2990   1.406   1_455  A
C2989      H2993   1.083       .  S
C2990      O2994   1.370       .  S
O2992      H2996   0.991       .  S
O2994      H2995   0.991       .  S
C2997      C2998   1.407       .  A
C2998      C2999   1.383       .  A
C2998      H3003   1.083       .  S
C2999      C3000   1.401       .  A
C2999      O3004   1.373       .  S
C3001      C3002   1.385       .  A
C3001      H3005   1.084       .  S
C3002      O3006   1.373       .  S
O3004      H3008   0.992       .  S
O3006      H3007   0.992       .  S
C3009      C3010   1.402       .  A
C3009      C3014   1.407       .  A
C3010      C3011   1.387   1_655  A
C3010      H3015   1.083       .  S
C3011      C3012   1.408       .  A
C3011      O3016   1.374       .  S
C3012      C3013   1.403       .  A
C3013      C3014   1.388   1_455  A
C3013      H3017   1.084       .  S
C3014      O3018   1.371       .  S
O3016      H3020   0.992       .  S
O3018      H3019   0.991       .  S
C3021      C3022   1.406       .  A
C3021      C3026   1.409       .  A
C3022      C3023   1.417       .  A
C3022      H3027   1.083       .  S
C3023      C3024   1.412   1_655  A
C3023      O3028   1.376       .  S
C3024      C3025   1.403   1_455  A
C3025      C3026   1.402       .  A
C3025      H3029   1.084   1_655  S
C3026      O3030   1.366       .  S
O3028      H3032   0.992       .  S
O3030      H3031   0.992       .  S
C3033      C3034   1.414       .  A
C3033      C3038   1.408   1_655  A
C3034      C3035   1.406       .  A
C3034      H3039   1.084       .  S
C3035      C3036   1.403       .  A
C3035      O3040   1.372       .  S
C3036      C3037   1.409       .  A
C3037      C3038   1.401   1_655  A
C3037      H3041   1.084       .  S
C3038      O3042   1.371       .  S
O3040      H3044   0.992       .  S
O3042      H3043   0.991       .  S
C3045      C3046   1.410       .  A
C3045      C3050   1.405       .  A
C3046      C3047   1.403       .  A
C3046      H3051   1.084       .  S
C3047      C3048   1.408       .  A
C3047      O3052   1.371       .  S
C3048      C3049   1.408       .  A
C3049      C3050   1.409       .  A
C3049      H3053   1.079       .  S
C3050      O3054   1.371       .  S
O3052      H3056   0.992       .  S
O3054      H3055   0.991       .  S
C3057      C3058   1.410       .  A
C3057      C3062   1.404       .  A
C3058      C3059   1.405       .  A
C3058      H3063   1.084       .  S
C3059      C3060   1.404       .  A
C3059      O3064   1.371       .  S
C3060      C3061   1.409       .  A
C3061      C3062   1.402       .  A
C3061      H3065   1.084       .  S
C3062      O3066   1.373       .  S
O3064      H3068   0.991       .  S
O3066      H3067   0.992       .  S
C3069      C3070   1.408       .  A
C3069      C3074   1.410       .  A
C3070      C3071   1.394       .  A
C3070      H3075   1.083       .  S
C3071      C3072   1.408       .  A
C3071      O3076   1.372       .  S
C3072      C3073   1.406       .  A
C3073      C3074   1.396       .  A
C3073      H3077   1.083       .  S
C3074      O3078   1.372       .  S
O3076      H3080   0.992       .  S
O3078      H3079   0.992       .  S
C3081      C3082   1.408       .  A
C3081      C3086   1.401   1_556  A
C3082      C3083   1.400       .  A
C3082      H3087   1.085       .  S
C3083      O3088   1.372       .  S
C3084      C3085   1.407       .  A
C3085      H3089   1.084       .  S
C3086      O3090   1.371       .  S
O3088      H3092   0.992       .  S
C3093      C3094   1.396       .  A
C3093      C3098   1.423       .  A
C3094      C3095   1.398       .  A
C3094      H3099   1.084       .  S
C3095      C3096   1.424       .  A
C3095      O3100   1.372       .  S
C3096      C3097   1.397       .  A
C3097      C3098   1.400       .  A
C3097      H3101   1.083       .  S
C3098      O3102   1.374       .  S
O3100      H3104   0.992       .  S
O3102      H3103   0.992       .  S
C3105      C3106   1.405       .  A
C3105      C3110   1.412       .  A
C3106      C3107   1.408       .  A
C3106      H3111   1.084       .  S
C3107      C3108   1.412       .  A
C3107      O3112   1.371       .  S
C3108      C3109   1.402       .  A
C3109      C3110   1.403       .  A
C3109      H3113   1.083       .  S
C3110      O3114   1.372       .  S
O3112      H3116   0.992       .  S
O3114      H3115   0.991       .  S
C3117      C3122   1.412       .  A
C3118      C3119   1.408       .  A
C3118      H3123   1.083       .  S
C3119      C3120   1.409       .  A
C3119      O3124   1.371       .  S
C3121      C3122   1.408       .  A
C3121      H3125   1.084       .  S
C3122      O3126   1.373       .  S
O3124      H3128   0.992       .  S
O3126      H3127   0.992       .  S
C3129      C3130   1.406       .  A
C3129      C3134   1.409       .  A
C3130      C3131   1.388       .  A
C3130      H3135   1.083       .  S
C3131      C3132   1.409       .  A
C3131      O3136   1.373       .  S
C3132      C3133   1.406       .  A
C3133      C3134   1.388       .  A
C3133      H3137   1.084       .  S
C3134      O3138   1.372       .  S
O3136      H3140   0.991       .  S
O3138      H3139   0.990       .  S
C3141      C3142   1.402       .  A
C3141      C3146   1.412       .  A
C3142      C3143   1.387       .  A
C3142      H3147   1.083       .  S
C3143      C3144   1.412       .  A
C3143      O3148   1.372       .  S
C3144      C3145   1.402       .  A
C3145      C3146   1.389       .  A
C3145      H3149   1.084       .  S
C3146      O3150   1.372       .  S
O3148      H3152   0.992       .  S
O3150      H3151   0.992       .  S
C3153      C3154   1.407       .  A
C3153      C3158   1.408       .  A
C3154      C3155   1.401       .  A
C3154      H3159   1.084       .  S
C3155      C3156   1.405       .  A
C3155      O3160   1.372       .  S
C3156      C3157   1.404       .  A
C3157      C3158   1.406       .  A
C3157      H3161   1.084       .  S
C3158      O3162   1.371       .  S
O3160      H3164   0.992       .  S
O3162      H3163   0.991       .  S
C3165      C3166   1.407       .  A
C3165      C3170   1.410       .  A
C3166      C3167   1.410       .  A
C3166      H3171   1.083       .  S
C3167      C3168   1.411       .  A
C3168      C3169   1.405       .  A
C3169      C3170   1.406       .  A
C3169      H3173   1.084       .  S
C3170      O3174   1.369       .  S
O3172      H3176   0.991       .  S
O3174      H3175   0.992       .  S
C3177      C3178   1.420       .  A
C3178      H3183   1.083       .  S
C3179      C3180   1.401       .  A
C3179      O3184   1.371       .  S
C3180      C3181   1.421       .  A
C3181      C3182   1.402       .  A
C3181      H3185   1.083       .  S
C3182      O3186   1.371       .  S
O3186      H3187   0.992       .  S
C3189      C3190   1.408       .  A
C3189      C3194   1.401       .  A
C3190      C3191   1.400       .  A
C3190      H3195   1.085       .  S
C3191      C3192   1.401       .  A
C3191      O3196   1.371       .  S
C3192      C3193   1.408       .  A
C3193      C3194   1.400       .  A
C3193      H3197   1.085       .  S
C3194      O3198   1.371       .  S
O3196      H3200   0.991       .  S
O3198      H3199   0.991       .  S
C3201      C3202   1.406       .  A
C3201      C3206   1.409       .  A
C3202      C3203   1.397       .  A
C3203      C3204   1.410       .  A
C3203      O3208   1.373       .  S
C3204      C3205   1.409       .  A
C3205      C3206   1.398       .  A
C3205      H3209   1.083       .  S
C3206      O3210   1.372       .  S
O3208      H3212   0.992       .  S
O3210      H3211   0.992       .  S
C3213      C3214   1.405       .  A
C3213      C3218   1.409       .  A
C3214      C3215   1.408       .  A
C3214      H3219   1.079       .  S
C3215      C3216   1.414       .  A
C3215      O3220   1.375       .  S
C3216      C3217   1.417       .  A
C3217      C3218   1.417       .  A
C3217      H3221   1.083       .  S
C3218      O3222   1.371       .  S
O3220      H3224   0.992       .  S
O3222      H3223   0.992       .  S
C3225      C3226   1.405       .  A
C3225      C3230   1.413       .  A
C3226      C3227   1.409       .  A
C3226      H3231   1.084       .  S
C3227      C3228   1.420       .  A
C3227      O3232   1.371       .  S
C3228      C3229   1.401       .  A
C3229      C3230   1.408       .  A
C3229      H3233   1.072       .  S
C3230      O3234   1.373       .  S
O3232      H3236   0.992       .  S
O3234      H3235   0.992       .  S
C3237      C3238   1.407       .  A
C3237      C3242   1.408       .  A
C3238      C3239   1.402       .  A
C3238      H3243   1.084       .  S
C3239      C3240   1.413       .  A
C3239      O3244   1.372       .  S
C3240      C3241   1.412       .  A
C3241      C3242   1.404       .  A
C3241      H3245   1.083       .  S
C3242      O3246   1.371       .  S
O3244      H3248   0.992       .  S
O3246      H3247   0.992       .  S
C3249      C3250   1.408       .  A
C3249      C3254   1.410       .  A
C3250      C3251   1.408       .  A
C3250      H3255   1.084       .  S
C3251      C3252   1.409       .  A
C3251      O3256   1.371       .  S
C3252      C3253   1.406       .  A
C3253      C3254   1.408       .  A
C3253      H3257   1.080       .  S
C3254      O3258   1.373       .  S
O3256      H3260   0.992       .  S
O3258      H3259   0.991       .  S
C3261      C3262   1.412       .  A
C3261      C3266   1.408       .  A
C3262      C3263   1.407       .  A
C3262      H3267   1.084       .  S
C3263      C3264   1.410       .  A
C3263      O3268   1.371       .  S
C3264      C3265   1.412       .  A
C3265      C3266   1.406       .  A
C3265      H3269   1.084       .  S
C3266      O3270   1.371       .  S
O3268      H3272   0.992       .  S
O3270      H3271   0.991       .  S
C3273      C3274   1.396       .  A
C3273      C3278   1.410       .  A
C3274      C3275   1.377       .  A
C3274      H3279   1.081       .  S
C3275      C3276   1.410       .  A
C3275      O3280   1.372       .  S
C3276      C3277   1.392       .  A
C3277      C3278   1.375       .  A
C3277      H3281   1.074       .  S
C3278      O3282   1.373       .  S
O3280      H3284   0.992       .  S
O3282      H3283   0.992       .  S
C3285      C3286   1.412       .  A
C3285      C3290   1.409       .  A
C3286      C3287   1.409       .  A
C3286      H3291   1.084       .  S
C3287      C3288   1.408       .  A
C3287      O3292   1.373       .  S
C3288      C3289   1.412       .  A
C3289      C3290   1.406       .  A
C3289      H3293   1.084       .  S
C3290      O3294   1.371       .  S
O3292      H3296   0.992       .  S
O3294      H3295   0.992       .  S
C3297      C3298   1.408       .  A
C3297      C3302   1.409       .  A
C3298      C3299   1.408       .  A
C3298      H3303   1.079       .  S
C3299      C3300   1.406       .  A
C3299      O3304   1.370       .  S
C3300      C3301   1.409       .  A
C3301      C3302   1.410       .  A
C3301      H3305   1.084       .  S
C3302      O3306   1.371       .  S
O3304      H3308   0.991       .  S
O3306      H3307   0.992       .  S
C3309      C3310   1.403       .  A
C3310      C3311   1.378       .  A
C3310      H3315   1.084       .  S
C3311      C3312   1.400       .  A
C3311      O3316   1.371       .  S
C3313      C3314   1.380       .  A
C3313      H3317   1.084       .  S
C3314      O3318   1.371       .  S
O3316      H3320   0.992       .  S
O3318      H3319   0.992       .  S
C3321      C3322   1.412       .  A
C3321      C3326   1.411       .  A
C3322      C3323   1.413       .  A
C3322      H3327   1.084       .  S
C3323      C3324   1.413       .  A
C3323      O3328   1.371       .  S
C3324      C3325   1.409       .  A
C3325      C3326   1.416       .  A
C3325      H3329   1.077       .  S
C3326      O3330   1.372       .  S
O3328      H3332   0.992       .  S
O3330      H3331   0.992       .  S
C3333      C3334   1.402       .  A
C3333      C3338   1.418       .  A
C3334      C3335   1.406       .  A
C3334      H3339   1.075       .  S
C3335      C3336   1.412       .  A
C3335      O3340   1.371       .  S
C3336      C3337   1.405       .  A
C3337      C3338   1.408       .  A
C3337      H3341   1.084       .  S
C3338      O3342   1.371       .  S
O3340      H3344   0.991       .  S
O3342      H3343   0.992       .  S
C3345      C3346   1.409       .  A
C3345      C3350   1.409       .  A
C3346      C3347   1.400       .  A
C3346      H3351   1.083       .  S
C3347      C3348   1.410       .  A
C3347      O3352   1.371       .  S
C3348      C3349   1.408       .  A
C3349      C3350   1.393       .  A
C3349      H3353   1.083       .  S
C3350      O3354   1.372       .  S
O3352      H3356   0.992       .  S
O3354      H3355   0.992       .  S
C3357      C3358   1.403       .  A
C3357      C3362   1.415       .  A
C3358      C3359   1.400       .  A
C3358      H3363   1.083       .  S
C3359      C3360   1.415       .  A
C3359      O3364   1.372       .  S
C3360      C3361   1.402       .  A
C3361      C3362   1.400       .  A
C3361      H3365   1.083       .  S
C3362      O3366   1.372       .  S
O3364      H3368   0.992       .  S
O3366      H3367   0.992       .  S
C3369      C3370   1.405       .  A
C3370      C3371   1.413       .  A
C3370      H3375   1.083       .  S
C3371      C3372   1.418       .  A
C3371      O3376   1.371       .  S
C3372      C3373   1.407       .  A
C3373      H3377   1.083       .  S
C3374      O3378   1.371       .  S
O3376      H3380   0.992       .  S
O3378      H3379   0.992       .  S
C3381      C3382   1.405       .  A
C3381      C3386   1.413       .  A
C3382      C3383   1.404       .  A
C3382      H3387   1.084       .  S
C3383      C3384   1.409       .  A
C3383      O3388   1.373       .  S
C3384      C3385   1.404       .  A
C3385      C3386   1.408       .  A
C3385      H3389   1.084       .  S
C3386      O3390   1.371       .  S
O3388      H3392   0.992       .  S
O3390      H3391   0.991       .  S
C3393      C3394   1.399       .  A
C3393      C3398   1.416       .  A
C3394      C3395   1.401   1_556  A
C3394      H3399   1.084       .  S
C3395      C3396   1.415   1_554  A
C3395      O3400   1.373       .  S
C3396      C3397   1.398       .  A
C3397      C3398   1.404       .  A
C3397      H3401   1.083       .  S
C3398      O3402   1.371       .  S
O3400      H3404   0.991       .  S
O3402      H3403   0.991       .  S
C3405      C3406   1.410       .  A
C3405      C3410   1.405       .  A
C3406      C3407   1.407       .  A
C3406      H3411   1.080       .  S
C3407      C3408   1.404       .  A
C3407      O3412   1.372       .  S
C3408      C3409   1.410       .  A
C3409      C3410   1.404       .  A
C3409      H3413   1.084       .  S
C3410      O3414   1.371       .  S
O3412      H3416   0.992       .  S
O3414      H3415   0.991       .  S
C3417      C3418   1.394       .  A
C3417      C3422   1.402       .  A
C3418      C3419   1.398       .  A
C3418      H3423   1.084       .  S
C3419      C3420   1.422       .  A
C3419      O3424   1.364       .  S
C3420      C3421   1.419       .  A
C3421      C3422   1.400       .  A
C3421      H3425   1.084       .  S
C3422      O3426   1.371       .  S
O3424      H3428   0.992       .  S
O3426      H3427   0.991       .  S
C3429      C3430   1.399       .  A
C3429      C3434   1.395       .  A
C3430      C3431   1.400       .  A
C3430      H3435   1.083       .  S
C3431      C3432   1.426       .  A
C3431      O3436   1.373       .  S
C3432      C3433   1.411       .  A
C3433      C3434   1.398       .  A
C3433      H3437   1.070       .  S
C3434      O3438   1.374       .  S
O3436      H3440   0.992       .  S
O3438      H3439   0.992       .  S
C3441      C3442   1.402       .  A
C3441      C3446   1.417       .  A
C3442      H3447   1.083       .  S
C3443      C3444   1.415       .  A
C3443      O3448   1.371       .  S
C3444      C3445   1.396   1_556  A
C3445      H3449   1.085       .  S
C3446      O3450   1.370       .  S
O3450      H3451   0.991       .  S
C3453      C3454   1.403       .  A
C3453      C3458   1.414       .  A
C3454      C3455   1.406       .  A
C3454      H3459   1.084       .  S
C3455      C3456   1.412       .  A
C3455      O3460   1.371       .  S
C3456      C3457   1.399       .  A
C3457      C3458   1.399       .  A
C3457      H3461   1.084       .  S
C3458      O3462   1.369       .  S
O3460      H3464   0.991       .  S
O3462      H3463   0.992       .  S
C3465      C3466   1.403   1_556  A
C3465      C3470   1.416       .  A
C3467      C3468   1.416       .  A
C3467      O3472   1.370       .  S
C3469      C3470   1.418       .  A
C3469      H3473   1.083       .  S
C3470      O3474   1.371       .  S
O3472      H3476   0.992       .  S
O3474      H3475   0.991       .  S
C3477      C3478   1.404       .  A
C3477      C3482   1.420       .  A
C3478      C3479   1.412       .  A
C3478      H3483   1.083       .  S
C3479      C3480   1.417       .  A
C3479      O3484   1.370       .  S
C3480      C3481   1.402       .  A
C3481      C3482   1.408       .  A
C3481      H3485   1.083       .  S
C3482      O3486   1.372       .  S
O3484      H3488   0.991       .  S
O3486      H3487   0.992       .  S
C3489      C3490   1.408       .  A
C3489      C3494   1.414       .  A
C3490      C3491   1.409       .  A
C3490      H3495   1.083   1_556  S
C3491      C3492   1.414       .  A
C3491      O3496   1.371       .  S
C3492      C3493   1.405       .  A
C3493      C3494   1.395       .  A
C3493      H3497   1.083       .  S
C3494      O3498   1.372       .  S
O3496      H3500   0.992   1_556  S
O3498      H3499   0.992       .  S
C3501      C3502   1.398       .  A
C3501      C3506   1.416   1_545  A
C3502      C3503   1.402       .  A
C3502      H3507   1.084       .  S
C3503      C3504   1.414   1_545  A
C3503      O3508   1.371       .  S
C3504      C3505   1.396       .  A
C3505      C3506   1.401       .  A
C3505      H3509   1.084       .  S
C3506      O3510   1.373       .  S
O3508      H3512   0.991       .  S
O3510      H3511   0.992       .  S
C3513      C3514   1.397       .  A
C3513      C3518   1.419       .  A
C3514      C3515   1.408       .  A
C3514      H3519   1.083       .  S
C3515      C3516   1.425   1_545  A
C3515      O3520   1.372       .  S
C3516      C3517   1.398       .  A
C3517      C3518   1.403   1_565  A
C3517      H3521   1.084       .  S
C3518      O3522   1.372       .  S
O3520      H3524   0.991       .  S
O3522      H3523   0.991       .  S
C3525      C3526   1.412       .  A
C3525      C3530   1.413       .  A
C3526      C3527   1.410       .  A
C3526      H3531   1.083       .  S
C3527      C3528   1.410       .  A
C3527      O3532   1.371       .  S
C3528      C3529   1.406       .  A
C3529      C3530   1.397       .  A
C3529      H3533   1.084       .  S
C3530      O3534   1.372       .  S
O3532      H3536   0.992       .  S
O3534      H3535   0.992       .  S
C3537      C3538   1.413   1_655  A
C3537      C3542   1.407       .  A
C3538      C3539   1.413       .  A
C3538      H3543   1.084       .  S
C3539      C3540   1.409       .  A
C3539      O3544   1.372       .  S
C3540      C3541   1.413       .  A
C3541      C3542   1.411   1_455  A
C3541      H3545   1.084       .  S
C3542      O3546   1.371       .  S
O3544      H3548   0.992       .  S
O3546      H3547   0.992       .  S
C3549      C3550   1.407       .  A
C3549      C3554   1.413       .  A
C3550      C3551   1.414       .  A
C3550      H3555   1.083       .  S
C3551      C3552   1.415   1_655  A
C3551      O3556   1.372       .  S
C3552      C3553   1.403       .  A
C3553      C3554   1.409   1_455  A
C3553      H3557   1.084       .  S
C3554      O3558   1.367       .  S
O3556      H3560   0.992       .  S
O3558      H3559   0.992   1_655  S
C3561      C3566   1.408   1_556  A
C3562      C3563   1.385   1_445  A
C3562      H3567   1.081       .  S
C3563      O3568   1.374       .  S
C3564      C3565   1.404   1_665  A
C3565      C3566   1.390       .  A
C3565      H3569   1.083   1_455  S
C3566      O3570   1.374       .  S
O3568      H3572   0.992   1_565  S
O3570      H3571   0.992       .  S
C3573      C3574   1.407       .  A
C3573      C3578   1.414       .  A
C3574      C3575   1.404       .  A
C3574      H3579   1.083       .  S
C3575      C3576   1.415       .  A
C3575      O3580   1.372       .  S
C3576      C3577   1.408       .  A
C3577      C3578   1.403       .  A
C3577      H3581   1.083       .  S
C3578      O3582   1.371       .  S
O3580      H3584   0.992       .  S
O3582      H3583   0.992       .  S
C3585      C3586   1.405   1_455  A
C3585      C3590   1.413       .  A
C3586      C3587   1.409   1_655  A
C3586      H3591   1.084       .  S
C3587      C3588   1.414       .  A
C3587      O3592   1.368       .  S
C3588      C3589   1.408       .  A
C3589      C3590   1.414       .  A
C3589      H3593   1.083       .  S
C3590      O3594   1.371       .  S
O3592      H3596   0.988       .  S
O3594      H3595   0.992       .  S
C3597      C3598   1.407       .  A
C3597      C3602   1.414   1_455  A
C3598      C3599   1.412   1_455  A
C3598      H3603   1.083       .  S
C3599      C3600   1.411       .  A
C3599      O3604   1.371   1_655  S
C3600      C3601   1.403       .  A
C3601      C3602   1.408       .  A
C3601      H3605   1.084       .  S
C3602      O3606   1.373       .  S
O3604      H3608   0.992       .  S
O3606      H3607   0.992       .  S
C3609      C3610   1.400   1_545  A
C3609      C3614   1.402       .  A
C3610      C3611   1.381   1_655  A
C3610      H3615   1.085       .  S
C3611      C3612   1.406   1_565  A
C3611      O3616   1.374       .  S
C3612      C3613   1.405   1_455  A
C3613      C3614   1.387       .  A
C3613      H3617   1.084       .  S
C3614      O3618   1.372       .  S
O3616      H3620   0.992       .  S
O3618      H3619   0.991       .  S
C3621      C3622   1.418       .  A
C3621      C3626   1.403       .  A
C3622      C3623   1.403       .  A
C3622      H3627   1.083       .  S
C3623      C3624   1.402       .  A
C3623      O3628   1.371       .  S
C3624      C3625   1.417       .  A
C3625      C3626   1.402       .  A
C3625      H3629   1.084       .  S
C3626      O3630   1.371   1_565  S
O3628      H3632   0.992       .  S
O3630      H3631   0.992       .  S
C3633      C3634   1.398       .  A
C3633      C3638   1.411       .  A
C3634      C3635   1.409       .  A
C3634      H3639   1.084       .  S
C3635      C3636   1.411   1_565  A
C3635      O3640   1.377   1_565  S
C3636      C3637   1.399       .  A
C3637      C3638   1.402   1_545  A
C3637      H3641   1.083       .  S
C3638      O3642   1.370       .  S
O3640      H3644   0.992   1_545  S
O3642      H3643   0.991       .  S
C3645      C3646   1.405       .  A
C3645      C3650   1.414       .  A
C3646      C3647   1.398       .  A
C3647      C3648   1.416       .  A
C3647      O3652   1.372       .  S
C3648      C3649   1.408       .  A
C3649      C3650   1.405       .  A
C3649      H3653   1.083       .  S
C3650      O3654   1.372       .  S
O3652      H3656   0.992       .  S
O3654      H3655   0.992       .  S
C3657      C3658   1.402       .  A
C3657      C3662   1.420       .  A
C3658      C3659   1.415       .  A
C3658      H3663   1.083       .  S
C3659      C3660   1.416       .  A
C3659      O3664   1.365       .  S
C3660      C3661   1.403       .  A
C3661      C3662   1.411       .  A
C3661      H3665   1.083       .  S
C3662      O3666   1.373       .  S
O3664      H3668   0.992       .  S
O3666      H3667   0.992       .  S
C3669      C3670   1.408       .  A
C3669      C3674   1.404   1_565  A
C3670      C3671   1.404       .  A
C3670      H3675   1.084       .  S
C3671      C3672   1.406       .  A
C3671      O3676   1.371       .  S
C3672      C3673   1.408       .  A
C3673      C3674   1.399   1_565  A
C3673      H3677   1.084       .  S
C3674      O3678   1.373       .  S
O3676      H3680   0.991       .  S
O3678      H3679   0.992       .  S
C3681      C3682   1.403       .  A
C3681      C3686   1.411       .  A
C3682      C3683   1.394       .  A
C3682      H3687   1.084       .  S
C3683      C3684   1.411       .  A
C3683      O3688   1.372       .  S
C3684      C3685   1.404       .  A
C3685      C3686   1.396       .  A
C3685      H3689   1.083       .  S
C3686      O3690   1.372       .  S
O3688      H3692   0.992       .  S
O3690      H3691   0.992       .  S
C3693      C3694   1.411       .  A
C3693      C3698   1.410       .  A
C3694      C3695   1.404       .  A
C3694      H3699   1.084       .  S
C3695      C3696   1.405       .  A
C3695      O3700   1.371       .  S
C3696      C3697   1.407       .  A
C3697      C3698   1.402       .  A
C3697      H3701   1.084       .  S
C3698      O3702   1.373       .  S
O3700      H3704   0.992       .  S
O3702      H3703   0.992       .  S
C3705      C3706   1.409       .  A
C3705      C3710   1.411       .  A
C3706      C3707   1.414       .  A
C3706      H3711   1.084       .  S
C3707      C3708   1.412       .  A
C3707      O3712   1.371       .  S
C3708      C3709   1.405       .  A
C3709      C3710   1.403       .  A
C3709      H3713   1.079       .  S
C3710      O3714   1.372       .  S
O3712      H3716   0.992       .  S
O3714      H3715   0.991       .  S
C3717      C3718   1.400   1_546  A
C3718      C3719   1.382       .  A
C3718      H3723   1.075   1_565  S
C3719      C3720   1.401   1_554  A
C3719      O3724   1.373       .  S
C3720      C3721   1.403       .  A
C3722      O3726   1.375   1_565  S
O3724      H3728   0.992       .  S
O3726      H3727   0.992       .  S
C3729      C3730   1.411       .  A
C3729      C3734   1.411       .  A
C3730      C3731   1.402       .  A
C3730      H3735   1.083       .  S
C3731      C3732   1.410       .  A
C3731      O3736   1.372       .  S
C3732      C3733   1.410       .  A
C3733      C3734   1.402       .  A
C3733      H3737   1.083       .  S
C3734      O3738   1.371       .  S
O3736      H3740   0.992       .  S
O3738      H3739   0.992       .  S
C3741      C3742   1.400       .  A
C3741      C3746   1.416       .  A
C3742      C3743   1.405       .  A
C3742      H3747   1.083       .  S
C3743      C3744   1.417       .  A
C3743      O3748   1.371       .  S
C3744      C3745   1.401       .  A
C3745      C3746   1.403       .  A
C3745      H3749   1.084       .  S
C3746      O3750   1.374       .  S
O3748      H3752   0.991       .  S
O3750      H3751   0.992       .  S
C3753      C3754   1.404       .  A
C3753      C3758   1.411       .  A
C3754      C3755   1.403       .  A
C3754      H3759   1.081       .  S
C3755      C3756   1.410       .  A
C3755      O3760   1.371       .  S
C3756      C3757   1.407       .  A
C3757      C3758   1.410       .  A
C3757      H3761   1.084       .  S
C3758      O3762   1.371       .  S
O3760      H3764   0.991       .  S
O3762      H3763   0.992       .  S
C3765      C3766   1.404       .  A
C3765      C3770   1.409       .  A
C3766      C3767   1.386       .  A
C3766      H3771   1.084   1_565  S
C3767      C3768   1.409       .  A
C3767      O3772   1.372       .  S
C3768      C3769   1.400       .  A
C3769      C3770   1.385       .  A
C3769      H3773   1.084       .  S
C3770      O3774   1.371       .  S
O3772      H3776   0.992       .  S
O3774      H3775   0.991       .  S
C3777      C3778   1.415       .  A
C3777      C3782   1.411       .  A
C3778      C3779   1.415   1_545  A
C3778      H3783   1.083       .  S
C3779      C3780   1.407       .  A
C3779      O3784   1.371       .  S
C3780      C3781   1.403       .  A
C3781      C3782   1.405   1_565  A
C3781      H3785   1.079       .  S
C3782      O3786   1.376       .  S
O3784      H3788   0.992   1_565  S
O3786      H3787   0.991       .  S
C3789      C3790   1.403   1_565  A
C3789      C3794   1.414       .  A
C3790      C3791   1.405   1_545  A
C3790      H3795   1.083       .  S
C3791      C3792   1.412       .  A
C3791      O3796   1.371       .  S
C3792      C3793   1.401       .  A
C3793      C3794   1.403       .  A
C3793      H3797   1.084       .  S
C3794      O3798   1.374       .  S
O3796      H3800   0.991       .  S
O3798      H3799   0.992       .  S
C3801      C3802   1.407       .  A
C3801      C3806   1.411       .  A
C3802      C3803   1.394       .  A
C3802      H3807   1.083       .  S
C3803      C3804   1.410       .  A
C3804      C3805   1.408       .  A
C3805      C3806   1.402       .  A
C3805      H3809   1.083       .  S
C3806      O3810   1.371       .  S
O3808      H3812   0.992       .  S
O3810      H3811   0.992       .  S
C3813      C3814   1.406       .  A
C3813      C3818   1.415       .  A
C3814      C3815   1.405       .  A
C3814      H3819   1.083       .  S
C3815      C3816   1.414       .  A
C3815      O3820   1.371       .  S
C3816      C3817   1.404       .  A
C3817      C3818   1.400       .  A
C3817      H3821   1.084       .  S
C3818      O3822   1.373       .  S
O3820      H3824   0.992       .  S
O3822      H3823   0.992       .  S
C3825      C3826   1.417       .  A
C3825      C3830   1.398       .  A
C3826      C3827   1.395       .  A
C3826      H3831   1.084       .  S
C3827      C3828   1.399       .  A
C3827      O3832   1.371       .  S
C3828      C3829   1.421       .  A
C3829      C3830   1.400       .  A
C3829      H3833   1.084       .  S
C3830      O3834   1.371       .  S
O3832      H3836   0.992       .  S
O3834      H3835   0.991       .  S
C3837      C3842   1.411       .  A
C3838      C3839   1.401       .  A
C3838      H3843   1.083       .  S
C3839      C3840   1.412       .  A
C3839      O3844   1.370       .  S
C3840      C3841   1.400       .  A
C3841      H3845   1.083   1_556  S
C3842      O3846   1.370       .  S
O3844      H3848   0.991       .  S
O3846      H3847   0.991       .  S
C3849      C3850   1.413       .  A
C3849      C3854   1.415       .  A
C3850      C3851   1.411       .  A
C3850      H3855   1.083       .  S
C3851      C3852   1.414       .  A
C3851      O3856   1.371       .  S
C3852      C3853   1.410       .  A
C3853      C3854   1.409       .  A
C3853      H3857   1.083       .  S
C3854      O3858   1.372       .  S
O3856      H3860   0.992       .  S
O3858      H3859   0.992       .  S
C3861      C3862   1.417       .  A
C3861      C3866   1.411       .  A
C3862      C3863   1.425       .  A
C3862      H3867   1.083       .  S
C3863      C3864   1.415       .  A
C3863      O3868   1.370       .  S
C3864      C3865   1.413       .  A
C3865      C3866   1.403       .  A
C3865      H3869   1.084       .  S
C3866      O3870   1.372       .  S
O3868      H3872   0.992       .  S
O3870      H3871   0.992       .  S
C3873      C3874   1.419       .  A
C3873      C3878   1.405       .  A
C3874      C3875   1.420       .  A
C3874      H3879   1.083       .  S
C3875      C3876   1.407   1_556  A
C3875      O3880   1.370       .  S
C3876      C3877   1.401   1_554  A
C3877      C3878   1.379       .  A
C3877      H3881   1.085   1_556  S
C3878      O3882   1.370       .  S
O3880      H3884   0.992       .  S
O3882      H3883   0.992       .  S
C3885      C3886   1.394       .  A
C3885      C3890   1.415       .  A
C3886      C3887   1.383       .  A
C3886      H3891   1.072       .  S
C3887      C3888   1.407       .  A
C3887      O3892   1.373       .  S
C3888      C3889   1.406       .  A
C3889      C3890   1.395       .  A
C3889      H3893   1.084       .  S
C3890      O3894   1.373       .  S
O3892      H3896   0.992       .  S
O3894      H3895   0.990       .  S
C3897      C3898   1.414       .  A
C3897      C3902   1.408       .  A
C3898      C3899   1.410       .  A
C3898      H3903   1.083       .  S
C3899      C3900   1.409       .  A
C3899      O3904   1.371       .  S
C3900      C3901   1.413       .  A
C3901      C3902   1.398       .  A
C3901      H3905   1.083       .  S
C3902      O3906   1.372       .  S
O3904      H3908   0.992       .  S
O3906      H3907   0.992       .  S
C3909      C3910   1.399       .  A
C3909      C3914   1.414       .  A
C3910      C3911   1.407       .  A
C3910      H3915   1.080       .  S
C3911      C3912   1.417       .  A
C3911      O3916   1.367       .  S
C3912      C3913   1.406       .  A
C3913      C3914   1.417       .  A
C3913      H3917   1.083       .  S
C3914      O3918   1.370       .  S
O3916      H3920   0.992       .  S
O3918      H3919   0.991       .  S
C3921      C3926   1.415       .  A
C3922      C3923   1.402       .  A
C3922      H3927   1.084       .  S
C3923      C3924   1.416       .  A
C3923      O3928   1.371       .  S
C3925      C3926   1.399       .  A
C3925      H3929   1.084       .  S
C3926      O3930   1.374       .  S
O3928      H3932   0.991       .  S
O3930      H3931   0.992       .  S
C3933      C3934   1.404       .  A
C3933      C3938   1.400       .  A
C3934      C3935   1.398       .  A
C3934      H3939   1.083       .  S
C3935      C3936   1.411       .  A
C3935      O3940   1.370       .  S
C3936      C3937   1.410       .  A
C3937      C3938   1.395       .  A
C3937      H3941   1.081       .  S
C3938      O3942   1.373       .  S
O3940      H3944   0.989       .  S
O3942      H3943   0.992       .  S
C3945      C3950   1.418       .  A
C3946      C3947   1.418       .  A
C3946      H3951   1.083       .  S
C3947      C3948   1.418       .  A
C3947      O3952   1.371       .  S
C3949      C3950   1.412   1_554  A
C3949      H3953   1.083       .  S
C3950      O3954   1.371       .  S
O3952      H3956   0.992       .  S
O3954      H3955   0.992       .  S
C3957      C3958   1.412       .  A
C3957      C3962   1.408       .  A
C3958      C3959   1.399       .  A
C3958      H3963   1.084       .  S
C3959      C3960   1.399       .  A
C3959      O3964   1.370       .  S
C3960      C3961   1.412       .  A
C3961      C3962   1.407       .  A
C3961      H3965   1.083       .  S
C3962      O3966   1.371       .  S
O3964      H3968   0.991       .  S
O3966      H3967   0.991       .  S
