geometry optimzed in LAMMPS
_audit_creation_date              2020-12-01 
_audit_creation_method            'lammps2cif' 
_symmetry_space_group_name_H-M    'P1' 
_symmetry_Int_Tables_number       1 
_symmetry_cell_setting            triclinic 
loop_ 
_symmetry_equiv_pos_as_xyz 
  x,y,z 
_cell_length_a                    44.88332067 
_cell_length_b                    45.25096573219732 
_cell_length_c                    26.32774150959454 
_cell_angle_alpha                 89.5280576397503 
_cell_angle_beta                  90.21184957257381 
_cell_angle_gamma                 89.72677935516778 
loop_ 
_atom_site_label 
_atom_site_type_symbol 
_atom_site_fract_x 
_atom_site_fract_y 
_atom_site_fract_z 
_atom_site_charge 
O1          O  0.34430575  0.82581216  0.45539262    -0.82500
C2          C  0.33445481  0.88993435  0.28090875     0.96800
O3          O  0.31807169  0.87392754  0.30845889    -0.71700
O4          O  0.30699792  0.83067780  0.37177307    -0.75300
Al5        Al  0.32047483  0.87131883  0.38048859     1.49000
C6          C  0.32078584  0.80828306  0.35458246     0.92100
O7          O  0.40481311  0.82449563  0.35362111    -0.81500
O8          O  0.41743961  0.87902825  0.39507680    -0.75000
Al9        Al  0.37280667  0.82868471  0.40197320     1.90100
O10         O  0.39589166  0.86144601  0.30172777    -0.74100
O11         O  0.37375375  0.91779811  0.39742238    -0.74000
O12         O  0.35658988  0.90312574  0.29995646    -0.79600
O13         O  0.32554498  0.91442941  0.38674783    -0.77800
O14         O  0.35909153  0.86284156  0.37808447    -1.13900
O15         O  0.32032147  0.86836334  0.45362652    -0.73100
C16         C  0.32902350  0.84540929  0.47756130     0.97600
C17         C  0.41013786  0.83833860  0.31272463     0.94000
Al18       Al  0.38396002  0.88840568  0.35084568     1.55600
O19         O  0.34879815  0.80676572  0.35719604    -0.77800
C20         C  0.34851654  0.92995031  0.39594031     0.98100
C21         C  0.41913381  0.86465146  0.43648150     0.93000
O22         O  0.39849517  0.84732832  0.44942955    -0.83100
O23         O  0.40571386  0.83595344  0.80697037    -0.82500
C24         C  0.34113547  0.85673514  0.98838376     0.96800
O25         O  0.36623486  0.86722190  0.97637999    -0.71700
O26         O  0.40640445  0.82687946  0.95459615    -0.75300
Al27       Al  0.39257182  0.86144584  0.92040972     1.49000
C28         C  0.42014418  0.80689370  0.93116751     0.92100
O29         O  0.35299216  0.78405014  0.87594378    -0.81500
O30         O  0.32812528  0.86042917  0.81289752    -0.75000
Al31       Al  0.37887224  0.81192277  0.84382622     1.90100
O32         O  0.31374621  0.81318093  0.87384962    -0.74100
O33         O  0.33372368  0.89275860  0.89488363    -0.74000
O34         O  0.32490205  0.84431316  0.95559295    -0.79600
O35         O  0.38202925  0.89824374  0.89104604    -0.77800
O36         O  0.36666066  0.84165904  0.88296731    -1.13900
O37         O  0.42435803  0.85977844  0.87200145    -0.73100
C38         C  0.42649203  0.85055164  0.82693706     0.97600
C39         C  0.32502681  0.78766398  0.87672958     0.94000
Al40       Al  0.32826072  0.85171968  0.88411013     1.55600
O41         O  0.41131165  0.79904886  0.88761266    -0.77800
C42         C  0.35617164  0.90917464  0.89137813     0.98100
C43         C  0.33568019  0.84247254  0.77868110     0.93000
O44         O  0.35051469  0.81942311  0.78998941    -0.83100
O45         O  0.35855032  0.20450904  0.30781925    -0.82500
C46         C  0.34881130  0.14183460  0.48760527     0.96800
O47         O  0.33147899  0.15474759  0.45628653    -0.71700
O48         O  0.31775026  0.19384346  0.38385809    -0.75300
Al49       Al  0.33920614  0.15742327  0.38409054     1.49000
C50         C  0.32406903  0.21796305  0.40496537     0.92100
O51         O  0.40960828  0.22127204  0.42021934    -0.81500
O52         O  0.43519044  0.16623520  0.38682594    -0.75000
Al53       Al  0.38273312  0.20915294  0.36803041     1.90100
O54         O  0.40874221  0.18480205  0.47505606    -0.74100
O55         O  0.40016743  0.11867111  0.38762619    -0.74000
O56         O  0.37585527  0.13741089  0.47674659    -0.79600
O57         O  0.35161199  0.11721721  0.38338836    -0.77800
O58         O  0.37515142  0.17316326  0.39338164    -1.13900
O59         O  0.34399530  0.15830085  0.31138790    -0.73100
C60         C  0.34967828  0.18136657  0.28558166     0.97600
C61         C  0.41768257  0.21004036  0.46199260     0.94000
Al62       Al  0.40270346  0.15344932  0.42839734     1.55600
O63         O  0.35083029  0.22652298  0.40648607    -0.77800
C64         C  0.37638704  0.10410993  0.38242029     0.98100
C65         C  0.43811996  0.18195904  0.34711703     0.93000
O66         O  0.41602199  0.19597480  0.32872660    -0.83100
O67         O  0.40632794  0.16829074  0.92724381    -0.82500
C68         C  0.32909055  0.12590239  0.78060125     0.96800
O69         O  0.35396292  0.11398949  0.79084818    -0.71700
O70         O  0.38707872  0.16063449  0.78250434    -0.75300
Al71       Al  0.38530427  0.13030666  0.83149514     1.49000
C72         C  0.40132129  0.18367713  0.79229936     0.92100
O73         O  0.34126326  0.20707884  0.86513821    -0.81500
O74         O  0.33462390  0.13699802  0.95689685    -0.75000
Al75       Al  0.37374401  0.18577431  0.89460887     1.90100
O76         O  0.30715877  0.17581859  0.89097483    -0.74100
O77         O  0.33664016  0.09639303  0.88414742    -0.74000
O78         O  0.31457130  0.13878990  0.81515306    -0.79600
O79         O  0.38524119  0.09833550  0.87694143    -0.77800
O80         O  0.36162547  0.15141520  0.87083081    -1.13900
O81         O  0.42231624  0.14183875  0.86347582    -0.73100
C82         C  0.42679149  0.15409598  0.90578310     0.97600
C83         C  0.31466874  0.20164213  0.87771119     0.94000
Al84       Al  0.32576631  0.13791208  0.88563348     1.55600
O85         O  0.39843787  0.19588240  0.83541397    -0.77800
C86         C  0.36202392  0.08401277  0.88689745     0.98100
C87         C  0.34333262  0.15906361  0.98233650     0.93000
O88         O  0.35351456  0.18178645  0.95963827    -0.83100
O89         O  0.58231095  0.85058303  0.19831964    -0.82500
C90         C  0.65317279  0.86526053  0.02413920     0.96800
O91         O  0.62777761  0.87673785  0.03144232    -0.71700
O92         O  0.58656020  0.83655560  0.05234262    -0.75300
Al93       Al  0.59889371  0.87226516  0.08439054     1.49000
C94         C  0.57279594  0.81669377  0.07662241     0.92100
O95         O  0.63713985  0.79632126  0.14231841    -0.81500
O96         O  0.65910507  0.87440946  0.20009569    -0.75000
Al97       Al  0.61010431  0.82514900  0.16799909     1.90100
O98         O  0.67620097  0.82503986  0.14780740    -0.74100
O99         O  0.65598684  0.90472782  0.11415554    -0.74000
O100        O  0.66789920  0.85396391  0.06047867    -0.79600
O101        O  0.60754653  0.91018819  0.11120990    -0.77800
O102        O  0.62349802  0.85363708  0.12726647    -1.13900
O103        O  0.56502592  0.87111609  0.12831959    -0.73100
C104        C  0.56136582  0.86263344  0.17371053     0.97600
C105        C  0.66484109  0.79950429  0.14881504     0.94000
Al106      Al  0.66169705  0.86367679  0.13008130     1.55600
O107        O  0.57997947  0.81082380  0.12211749    -0.77800
C108        C  0.63322323  0.92124124  0.11430954     0.98100
C109        C  0.65156280  0.85635766  0.23453726     0.93000
O110        O  0.63615998  0.83386943  0.22393752    -0.83100
O111        O  0.65351489  0.82258604  0.55228791    -0.82500
C112        C  0.66291736  0.88313663  0.72966095     0.96800
O113        O  0.67890563  0.86684675  0.70205333    -0.71700
O114        O  0.68943896  0.82538781  0.63509595    -0.75300
Al115      Al  0.67614438  0.86609828  0.62984019     1.49000
C116        C  0.67640617  0.80250738  0.65210514     0.92100
O117        O  0.59046404  0.81977378  0.65219589    -0.81500
O118        O  0.57992418  0.87559194  0.61285335    -0.75000
Al119      Al  0.62412176  0.82434487  0.60561340     1.90100
O120        O  0.59963175  0.85477920  0.70635080    -0.74100
O121        O  0.62338418  0.91361277  0.61504204    -0.74000
O122        O  0.63970506  0.89552812  0.71182358    -0.79600
O123        O  0.67149110  0.90909630  0.62590435    -0.77800
O124        O  0.63758303  0.85783026  0.63154953    -1.13900
O125        O  0.67593092  0.86565160  0.55738555    -0.73100
C126        C  0.66785252  0.84357592  0.53163245     0.97600
C127        C  0.58352045  0.83387933  0.69194224     0.94000
Al128      Al  0.61263074  0.88297843  0.65932094     1.55600
O129        O  0.64823126  0.80090945  0.65067256    -0.77800
C130        C  0.64881898  0.92502787  0.61592812     0.98100
C131        C  0.57863209  0.86220940  0.57080230     0.93000
O132        O  0.59912795  0.84458034  0.55801290    -0.83100
O133        O  0.59123476  0.18386193  0.05998234    -0.82500
C134        C  0.65848393  0.13663645  0.22223184     0.96800
O135        O  0.63265022  0.12893339  0.20907864    -0.71700
O136        O  0.60145457  0.17749099  0.20792753    -0.75300
Al137      Al  0.60541982  0.14627827  0.16192069     1.49000
C138        C  0.58838015  0.20096815  0.19462804     0.92100
O139        O  0.65409209  0.22168327  0.13119365    -0.81500
O140        O  0.66473555  0.15006284  0.04710528    -0.75000
Al141      Al  0.62255180  0.20071130  0.09835831     1.90100
O142        O  0.68844780  0.18793474  0.11675703    -0.74100
O143        O  0.65588388  0.10940603  0.11990543    -0.74000
O144        O  0.67520982  0.15032027  0.19157076    -0.79600
O145        O  0.60719823  0.11325567  0.11897504    -0.77800
O146        O  0.63223345  0.16599522  0.12651097    -1.13900
O147        O  0.57170540  0.15883807  0.12307823    -0.73100
C148        C  0.56962897  0.17036148  0.07949185     0.97600
C149        C  0.68113874  0.21462352  0.12406427     0.94000
Al150      Al  0.66837445  0.15064387  0.11947999     1.55600
O151        O  0.59438429  0.21268876  0.15178537    -0.77800
C152        C  0.63039663  0.09778457  0.11425141     0.98100
C153        C  0.65895069  0.17283723  0.02051555     0.93000
O154        O  0.64674316  0.19532332  0.03987848    -0.83100
O155        O  0.64051193  0.19024600  0.70794263    -0.82500
C156        C  0.64814774  0.14952869  0.51487980     0.96800
O157        O  0.66478920  0.15868454  0.54994171    -0.71700
O158        O  0.67865403  0.18899394  0.62990531    -0.75300
Al159      Al  0.65843012  0.15240158  0.61986749     1.49000
C160        C  0.67087291  0.21493195  0.61726374     0.92100
O161        O  0.58444036  0.21641973  0.60656480    -0.81500
O162        O  0.56151073  0.15964372  0.62478936    -0.75000
Al163      Al  0.61400869  0.20001024  0.65235446     1.90100
O164        O  0.58744123  0.18711725  0.54128495    -0.74100
O165        O  0.59832709  0.11361940  0.60896664    -0.74000
O166        O  0.62165121  0.14128298  0.52377864    -0.79600
O167        O  0.64706764  0.11236835  0.60952686    -0.77800
O168        O  0.62207393  0.16783568  0.61667831    -1.13900
O169        O  0.65485237  0.14497535  0.69047674    -0.73100
C170        C  0.65057212  0.16526642  0.72222462     0.97600
C171        C  0.57676493  0.20973598  0.56195469     0.94000
Al172      Al  0.59441755  0.15159392  0.57791197     1.55600
O173        O  0.64367196  0.22234215  0.61759562    -0.77800
C174        C  0.62243096  0.09914220  0.61071193     0.98100
C175        C  0.56090227  0.16989271  0.66968538     0.93000
O176        O  0.58405260  0.18072132  0.68934360    -0.83100
O177        O  0.82671204  0.59937385  0.19537919    -0.82500
C178        C  0.86827537  0.67367839  0.35168938     0.96800
O179        O  0.87621288  0.64764937  0.34201538    -0.71700
O180        O  0.82844867  0.61496081  0.34225051    -0.75300
Al181      Al  0.86084894  0.61876619  0.29763694     1.49000
C182        C  0.80643204  0.59990725  0.32812543     0.92100
O183        O  0.78289660  0.66126948  0.25880598    -0.81500
O184        O  0.85482724  0.67446841  0.17619993    -0.75000
Al185      Al  0.80657850  0.63075892  0.22947830     1.90100
O186        O  0.81484223  0.69714201  0.24412024    -0.74100
O187        O  0.89557150  0.66910148  0.24968804    -0.74000
O188        O  0.85355375  0.68869786  0.31952354    -0.79600
O189        O  0.89459714  0.62071547  0.25597913    -0.77800
O190        O  0.84026131  0.64320131  0.25829181    -1.13900
O191        O  0.85107672  0.58362418  0.26267517    -0.73100
C192        C  0.84114637  0.57938640  0.21862977     0.97600
C193        C  0.78847040  0.68841941  0.25189647     0.94000
Al194      Al  0.85357934  0.67959274  0.24809867     1.55600
O195        O  0.79539437  0.60411879  0.28426662    -0.77800
C196        C  0.90876267  0.64424985  0.24828589     0.98100
C197        C  0.83276119  0.66677791  0.14948370     0.93000
O198        O  0.81096117  0.65344231  0.16910024    -0.83100
O199        O  0.82311761  0.65103988  0.83679997    -0.82500
C200        C  0.86592077  0.66102971  0.64396763     0.96800
O201        O  0.85828226  0.67731750  0.68017126    -0.71700
O202        O  0.82689712  0.69150248  0.75882814    -0.75300
Al203      Al  0.86323755  0.66937234  0.75010012     1.49000
C204        C  0.80018286  0.68552318  0.74725101     0.92100
O205        O  0.79490572  0.60049412  0.73270460    -0.81500
O206        O  0.85159290  0.57433524  0.74960947    -0.75000
Al207      Al  0.81247374  0.62700396  0.78022811     1.90100
O208        O  0.82505085  0.60287296  0.66785844    -0.74100
O209        O  0.89937207  0.60763555  0.73696878    -0.74000
O210        O  0.87324427  0.63427622  0.65169300    -0.79600
O211        O  0.90392808  0.65560597  0.74128628    -0.77800
O212        O  0.84582622  0.63422759  0.74534124    -1.13900
O213        O  0.86909259  0.66490200  0.82128379    -0.73100
C214        C  0.84783056  0.66114930  0.85192932     0.97600
C215        C  0.80160483  0.59327709  0.68808255     0.94000
Al216      Al  0.86116731  0.60701277  0.70498369     1.55600
O217        O  0.79154815  0.65894714  0.74733901    -0.77800
C218        C  0.91561429  0.63009551  0.74215483     0.98100
C219        C  0.84051052  0.57157497  0.79371890     0.93000
O220        O  0.82941649  0.59380748  0.81588686    -0.83100
O221        O  0.16930143  0.60665052  0.32770834    -0.82500
C222        C  0.12777892  0.67108217  0.15761765     0.96800
O223        O  0.11766117  0.64669920  0.17357276    -0.71700
O224        O  0.16132251  0.60962687  0.18061741    -0.75300
Al225      Al  0.13095136  0.62015260  0.22549993     1.49000
C226        C  0.18533970  0.59755498  0.19402036     0.92100
O227        O  0.21152906  0.66375734  0.24852389    -0.81500
O228        O  0.13987934  0.68177074  0.33141927    -0.75000
Al229      Al  0.18806067  0.63513729  0.28566630     1.90100
O230        O  0.18019876  0.70033006  0.26071597    -0.74100
O231        O  0.09986423  0.67615934  0.25856940    -0.74000
O232        O  0.14262258  0.68772681  0.18661883    -0.79600
O233        O  0.09739566  0.62812952  0.26654780    -0.77800
O234        O  0.15375131  0.64624030  0.25662544    -1.13900
O235        O  0.13954910  0.58767408  0.27062285    -0.73100
C236        C  0.15234050  0.58625533  0.31336213     0.97600
C237        C  0.20617380  0.69126284  0.25147605     0.94000
Al238      Al  0.14173043  0.68362952  0.25924180     1.55600
O239        O  0.19787880  0.60468910  0.23548328    -0.77800
C240        C  0.08488483  0.65310262  0.26659323     0.98100
C241        C  0.16105403  0.67374683  0.36037324     0.93000
O242        O  0.18416675  0.66146841  0.34239733    -0.83100
O243        O  0.19349531  0.63743218  0.67847627    -0.82500
C244        C  0.14346076  0.65803933  0.86474148     0.96800
O245        O  0.15583421  0.67222193  0.82951078    -0.71700
O246        O  0.19433695  0.67839660  0.75783422    -0.75300
Al247      Al  0.15382300  0.66450095  0.75911416     1.49000
C248        C  0.21831113  0.66581314  0.77202513     0.92100
O249        O  0.20589261  0.58351091  0.78711796    -0.81500
O250        O  0.14758175  0.56840524  0.76669084    -0.75000
Al251      Al  0.19570934  0.61228942  0.73671553     1.90100
O252        O  0.17545247  0.59296629  0.84961334    -0.74100
O253        O  0.10592426  0.61054321  0.77120405    -0.74000
O254        O  0.13261206  0.63275277  0.85695660    -0.79600
O255        O  0.11115377  0.65834041  0.76036446    -0.77800
O256        O  0.16361469  0.62666871  0.76768920    -1.13900
O257        O  0.15139248  0.66142498  0.68660430    -0.73100
C258        C  0.17294232  0.65311710  0.65945386     0.97600
C259        C  0.19795346  0.57959543  0.83247077     0.94000
Al260      Al  0.14201992  0.60320504  0.80761319     1.55600
O261        O  0.22121536  0.63818570  0.77055179    -0.77800
C262        C  0.09473952  0.63559480  0.76112750     0.98100
C263        C  0.15936899  0.56408390  0.72364776     0.93000
O264        O  0.17296879  0.58461263  0.70091017    -0.83100
O265        O  0.80181505  0.37180010  0.44200192    -0.82500
C266        C  0.86507046  0.36262125  0.62285522     0.96800
O267        O  0.84916927  0.34608615  0.59546599    -0.71700
O268        O  0.80734374  0.33355634  0.52770886    -0.75300
Al269      Al  0.84657860  0.35006248  0.52279572     1.49000
C270        C  0.78247378  0.34440371  0.54059520     0.92100
O271        O  0.79109719  0.42866178  0.54729816    -0.81500
O272        O  0.84706547  0.44592255  0.51247387    -0.75000
Al273      Al  0.79996649  0.39872694  0.49810646     1.90100
O274        O  0.82737987  0.42436586  0.60303955    -0.74100
O275        O  0.88997402  0.40656482  0.51172205    -0.74000
O276        O  0.87310945  0.38766956  0.60657662    -0.79600
O277        O  0.88858366  0.35826413  0.51721105    -0.77800
O278        O  0.83467689  0.38758973  0.52565173    -1.13900
O279        O  0.84558865  0.35050035  0.45039160    -0.73100
C280        C  0.82367772  0.35807303  0.42292783     0.97600
C281        C  0.80294047  0.43578589  0.58904335     0.94000
Al282      Al  0.85758498  0.41389496  0.55586859     1.55600
O283        O  0.77815121  0.37191883  0.53876520    -0.77800
C284        C  0.90254315  0.38177541  0.50686600     0.98100
C285        C  0.83249778  0.44873141  0.47165197     0.93000
O286        O  0.81760607  0.42740232  0.45454198    -0.83100
O287        O  0.84738352  0.41477285  0.08069936    -0.82500
C288        C  0.87625690  0.34121008  0.91798586     0.96800
O289        O  0.88930576  0.36508046  0.92868158    -0.71700
O290        O  0.84746548  0.40529035  0.93378220    -0.75300
Al291      Al  0.87971957  0.39487172  0.97685210     1.49000
C292        C  0.82594911  0.42063674  0.94947052     0.92100
O293        O  0.79864908  0.35820140  0.01451134    -0.81500
O294        O  0.87142039  0.33877640  0.09661018    -0.75000
Al295      Al  0.82496392  0.38626058  0.04551587     1.90100
O296        O  0.82713207  0.31997833  0.03250207    -0.74100
O297        O  0.91033172  0.33938464  0.01851177    -0.74000
O298        O  0.86307911  0.32654559  0.95237510    -0.79600
O299        O  0.91462968  0.38743887  0.01551582    -0.77800
O300        O  0.85726976  0.37176225  0.01548695    -1.13900
O301        O  0.87464031  0.42965337  0.01645724    -0.73100
C302        C  0.86332166  0.43409261  0.05951650     0.97600
C303        C  0.80142887  0.33095245  0.02519294     0.94000
Al304      Al  0.86725945  0.33402417  0.02409821     1.55600
O305        O  0.81506513  0.41528756  0.99292336    -0.77800
C306        C  0.92640914  0.36232675  0.02122930     0.98100
C307        C  0.85044795  0.34813382  0.12463313     0.93000
O308        O  0.82865220  0.36218878  0.10540567    -0.83100
O309        O  0.20356410  0.35927901  0.09142421    -0.82500
C310        C  0.14645137  0.36077141  0.90747501     0.96800
O311        O  0.15782765  0.34255477  0.93841320    -0.71700
O312        O  0.19609702  0.32482316  0.00609364    -0.75300
Al313      Al  0.15813124  0.34494913  0.01000231     1.49000
C314        C  0.22085104  0.33428179  0.98974883     0.92100
O315        O  0.22057514  0.41909711  0.99248929    -0.81500
O316        O  0.16554386  0.44066337  0.02570633    -0.75000
Al317      Al  0.20810117  0.38811820  0.03805676     1.90100
O318        O  0.18591167  0.41835167  0.93395146    -0.74100
O319        O  0.11824012  0.40502278  0.01683108    -0.74000
O320        O  0.13826237  0.38616857  0.92219863    -0.79600
O321        O  0.11676388  0.35676420  0.01244149    -0.77800
O322        O  0.17300623  0.38123538  0.00874619    -1.13900
O323        O  0.15751408  0.34414341  0.08247051    -0.73100
C324        C  0.18021549  0.34803572  0.11008286     0.97600
C325        C  0.21075395  0.42723882  0.94965808     0.94000
Al326      Al  0.15347263  0.41022361  0.97742934     1.55600
O327        O  0.22771135  0.36109066  0.99491082    -0.77800
C328        C  0.10375888  0.38119938  0.02006091     0.98100
C329        C  0.17902414  0.43973762  0.06833750     0.93000
O330        O  0.19176591  0.41624035  0.08318480    -0.83100
O331        O  0.15885873  0.40838090  0.43426526    -0.82500
C332        C  0.12101356  0.34801849  0.60906614     0.96800
O333        O  0.10702787  0.36900436  0.58760466    -0.71700
O334        O  0.14946804  0.40693849  0.58118364    -0.75300
Al335      Al  0.12060745  0.39502266  0.53504695     1.49000
C336        C  0.17396231  0.41847591  0.56968044     0.92100
O337        O  0.20338916  0.35609381  0.51818452    -0.81500
O338        O  0.13421163  0.33019218  0.43627587    -0.75000
Al339      Al  0.17876762  0.38166721  0.47855251     1.90100
O340        O  0.17640038  0.31661419  0.50799515    -0.74100
O341        O  0.09306176  0.33713812  0.50794647    -0.74000
O342        O  0.13748828  0.33105059  0.58283223    -0.79600
O343        O  0.08911143  0.38451605  0.49100378    -0.77800
O344        O  0.14530042  0.36943722  0.50720708    -1.13900
O345        O  0.12881516  0.42769205  0.49015541    -0.73100
C346        C  0.14210395  0.42909259  0.44811831     0.97600
C347        C  0.20164419  0.32846268  0.51381095     0.94000
Al348      Al  0.13604681  0.33142043  0.50891107     1.55600
O349        O  0.18668910  0.41231981  0.52806733    -0.77800
C350        C  0.07740000  0.35926924  0.49419682     0.98100
C351        C  0.15487519  0.33885008  0.40699861     0.93000
O352        O  0.17642837  0.35407414  0.42369077    -0.83100
C353        C  0.11835911  0.34566059  0.66525449    -0.06000
C354        C  0.09450701  0.36038088  0.68906684    -0.05900
C355        C  0.09456846  0.36522973  0.74132547    -0.24100
C356        C  0.11842442  0.35531911  0.77131404     0.18100
C357        C  0.14160941  0.33871337  0.74866810     0.15400
C358        C  0.14143656  0.33390369  0.69568755    -0.19100
C359        C  0.16512142  0.32827576  0.77922035    -0.20900
C360        C  0.16601051  0.33481416  0.83110009    -0.13500
C361        C  0.14374942  0.35239845  0.85336704     0.03200
C362        C  0.11983349  0.36240810  0.82325749    -0.25600
H363        H  0.07629575  0.36952352  0.66675522     0.08300
H364        H  0.07638736  0.37761436  0.75799613     0.11900
H365        H  0.16005773  0.32271986  0.67793705     0.11800
H366        H  0.18307433  0.31542706  0.76286750     0.11500
H367        H  0.18470291  0.32689108  0.85362988     0.12100
H368        H  0.10243229  0.37575439  0.84021296     0.14000
C369        C  0.15400969  0.33268970  0.35199834    -0.06000
C370        C  0.12680704  0.33126849  0.32557301    -0.05900
C371        C  0.12632146  0.33166488  0.27227989    -0.24100
C372        C  0.15303790  0.33349755  0.24474839     0.18100
C373        C  0.18045999  0.33341244  0.27133861     0.15400
C374        C  0.18074500  0.33275436  0.32450479    -0.19100
C375        C  0.20722457  0.33549977  0.24451865    -0.20900
C376        C  0.20692409  0.33905798  0.19191832    -0.13500
C377        C  0.17987810  0.34028286  0.16486817     0.03200
C378        C  0.15290770  0.33668690  0.19144514    -0.25600
H379        H  0.10593381  0.33152191  0.34603694     0.08300
H380        H  0.10504288  0.33167014  0.25267783     0.11900
H381        H  0.20186366  0.33376874  0.34462658     0.11800
H382        H  0.22842208  0.33535161  0.26440792     0.11500
H383        H  0.22798996  0.34158473  0.17246055     0.12100
H384        H  0.13188941  0.33778828  0.17107475     0.14000
C385        C  0.07100905  0.38187137  0.02977104    -0.06000
C386        C  0.05617267  0.40885245  0.03810197    -0.05900
C387        C  0.02503584  0.41006793  0.04129237    -0.24100
C388        C  0.00797210  0.38434963  0.03589706     0.18100
C389        C  0.02254905  0.35693423  0.02932206     0.15400
C390        C  0.05391770  0.35582583  0.02667050    -0.19100
C391        C  0.00542854  0.33123654  0.02380895    -0.20900
C392        C  0.97420708  0.33280344  0.02310093    -0.13500
C393        C  0.95938913  0.36008261  0.02796122     0.03200
C394        C  0.97659783  0.38574326  0.03533319    -0.25600
H395        H  0.06860187  0.42923198  0.04084968     0.08300
H396        H  0.01426155  0.43127686  0.04665454     0.11900
H397        H  0.06490454  0.33481540  0.02027417     0.11800
H398        H  0.01619046  0.30999235  0.01881619     0.11500
H399        H  0.96166937  0.31272305  0.01719174     0.12100
H400        H  0.96561649  0.40697967  0.03922866     0.14000
C401        C  0.93429576  0.38039676  0.49203575    -0.06000
C402        C  0.94860691  0.40566565  0.47280415    -0.05900
C403        C  0.97932241  0.40555415  0.46443050    -0.24100
C404        C  0.99635947  0.38030701  0.47585744     0.18100
C405        C  0.98208273  0.35442877  0.49347049     0.15400
C406        C  0.95111250  0.35452926  0.50087280    -0.19100
C407        C  0.99920395  0.32932319  0.50556084    -0.20900
C408        C  0.03027911  0.33031909  0.50277663    -0.13500
C409        C  0.04477641  0.35638368  0.48756550     0.03200
C410        C  0.02753884  0.38100279  0.47245262    -0.25600
H411        H  0.93613713  0.42579010  0.46534960     0.08300
H412        H  0.98989196  0.42555681  0.45066829     0.11900
H413        H  0.94036948  0.33491398  0.51592095     0.11800
H414        H  0.98863254  0.30926169  0.51904104     0.11500
H415        H  0.04299117  0.31108386  0.51478704     0.12100
H416        H  0.03841134  0.40126403  0.46060057     0.14000
C417        C  0.87494308  0.35366828  0.67450875    -0.06000
C418        C  0.90049039  0.36711592  0.69477123    -0.05900
C419        C  0.90815319  0.36333114  0.74563738    -0.24100
C420        C  0.89013842  0.34639206  0.77769593     0.18100
C421        C  0.86527352  0.33130601  0.75767060     0.15400
C422        C  0.85804032  0.33463675  0.70563603    -0.19100
C423        C  0.84712420  0.31489489  0.79089605    -0.20900
C424        C  0.85204744  0.31570837  0.84366451    -0.13500
C425        C  0.87549452  0.33253549  0.86374617     0.03200
C426        C  0.89543367  0.34627461  0.83007995    -0.25600
H427        H  0.91412678  0.38150534  0.67150048     0.08300
H428        H  0.92736745  0.37489588  0.76044399     0.11900
H429        H  0.83827288  0.32421038  0.69039955     0.11800
H430        H  0.82808655  0.30293353  0.77640130     0.11500
H431        H  0.83636040  0.30491476  0.86876824     0.12100
H432        H  0.91383914  0.35906854  0.84496666     0.14000
C433        C  0.82358786  0.35181879  0.36765750    -0.06000
C434        C  0.79689271  0.35441337  0.33984873    -0.05900
C435        C  0.79679573  0.35187825  0.28705376    -0.24100
C436        C  0.82346178  0.34705755  0.26080007     0.18100
C437        C  0.85040918  0.34358208  0.28811225     0.15400
C438        C  0.85027932  0.34572527  0.34152398    -0.19100
C439        C  0.87705630  0.33902196  0.26126246    -0.20900
C440        C  0.87712425  0.33900516  0.20791055    -0.13500
C441        C  0.85054794  0.34356715  0.18056961     0.03200
C442        C  0.82369101  0.34679054  0.20754705    -0.25600
H443        H  0.77605725  0.35899106  0.35888994     0.08300
H444        H  0.77592180  0.35450212  0.26661944     0.11900
H445        H  0.87107399  0.34391697  0.36244774     0.11800
H446        H  0.89797692  0.33628483  0.28150388     0.11500
H447        H  0.89807781  0.33661577  0.18808615     0.12100
H448        H  0.80293026  0.35010607  0.18700474     0.14000
C449        C  0.22504353  0.45137922  0.92176693    -0.06000
C450        C  0.22665508  0.45047697  0.86864415    -0.05900
C451        C  0.22831929  0.47669040  0.84046128    -0.24100
C452        C  0.22640689  0.50398609  0.86520194     0.18100
C453        C  0.22678286  0.50494684  0.91883492     0.15400
C454        C  0.22778544  0.47849341  0.94680964    -0.19100
C455        C  0.22229649  0.53197128  0.94354454    -0.20900
C456        C  0.21414528  0.55716181  0.91552552    -0.13500
C457        C  0.21249321  0.55599691  0.86240152     0.03200
C458        C  0.22056459  0.52983825  0.83735497    -0.25600
H459        H  0.22422286  0.42969390  0.84894871     0.08300
H460        H  0.22796309  0.47561006  0.79939414     0.11900
H461        H  0.22595976  0.47913143  0.98777875     0.11800
H462        H  0.22282227  0.53301962  0.98445446     0.11500
H463        H  0.20809638  0.57721145  0.93535325     0.12100
H464        H  0.21884467  0.52870817  0.79634865     0.14000
C465        C  0.18440464  0.44257042  0.60230420    -0.06000
C466        C  0.20262792  0.46485680  0.58221346    -0.05900
C467        C  0.20279021  0.49284071  0.60425577    -0.24100
C468        C  0.18418808  0.49889234  0.64566917     0.18100
C469        C  0.16790891  0.47581913  0.66867037     0.15400
C470        C  0.16918548  0.44753936  0.64811544    -0.19100
C471        C  0.14885552  0.48183651  0.70940198    -0.20900
C472        C  0.14521620  0.51075488  0.72628911    -0.13500
C473        C  0.16072116  0.53401197  0.70283288     0.03200
C474        C  0.18059387  0.52778097  0.66307442    -0.25600
H475        H  0.21455216  0.46151996  0.54704915     0.08300
H476        H  0.21575968  0.51029287  0.58664767     0.11900
H477        H  0.15540752  0.43026913  0.66448509     0.11800
H478        H  0.13624594  0.46427127  0.72744172     0.11500
H479        H  0.13040840  0.51489819  0.75780516     0.12100
H480        H  0.19332005  0.54544289  0.64549511     0.14000
C481        C  0.12234291  0.67835297  0.10382512    -0.06000
C482        C  0.09597599  0.66794422  0.08147471    -0.05900
C483        C  0.09368143  0.66503653  0.02908970    -0.24100
C484        C  0.11780254  0.67239144  0.99816134     0.18100
C485        C  0.14340147  0.68563344  0.01962783     0.15400
C486        C  0.14539970  0.68890161  0.07269596    -0.19100
C487        C  0.16734088  0.69315581  0.98794116    -0.20900
C488        C  0.16665502  0.68576519  0.93637307    -0.13500
C489        C  0.14216646  0.67055659  0.91608230     0.03200
C490        C  0.11743409  0.66485778  0.94674193    -0.25600
H491        H  0.07789310  0.65994751  0.10495057     0.08300
H492        H  0.07375211  0.65529461  0.01310014     0.11900
H493        H  0.16585513  0.69676757  0.08978420     0.11800
H494        H  0.18704923  0.70352350  0.00340831     0.11500
H495        H  0.18594088  0.69039635  0.91306418     0.12100
H496        H  0.09837696  0.65340115  0.93097315     0.14000
C497        C  0.15860301  0.67717465  0.41607126    -0.06000
C498        C  0.13066361  0.68100141  0.43918832    -0.05900
C499        C  0.12782978  0.67924481  0.49213040    -0.24100
C500        C  0.15288356  0.67353318  0.52281532     0.18100
C501        C  0.18120886  0.67100305  0.49980050     0.15400
C502        C  0.18389495  0.67304491  0.44689422    -0.19100
C503        C  0.20633879  0.66514142  0.52979533    -0.20900
C504        C  0.20336046  0.66033571  0.58179842    -0.13500
C505        C  0.17525344  0.66157286  0.60517269     0.03200
C506        C  0.15008026  0.66911013  0.57567822    -0.25600
H507        H  0.11079729  0.68402862  0.41623581     0.08300
H508        H  0.10591440  0.68134376  0.50889843     0.11900
H509        H  0.20559286  0.67014622  0.42959159     0.11800
H510        H  0.22823418  0.66336926  0.51281152     0.11500
H511        H  0.22317705  0.65506208  0.60373609     0.12100
H512        H  0.12831536  0.67016589  0.59330751     0.14000
C513        C  0.14810216  0.56003332  0.34606654    -0.06000
C514        C  0.14993992  0.56231284  0.39915550    -0.05900
C515        C  0.14682698  0.53723414  0.43003052    -0.24100
C516        C  0.14268738  0.50937320  0.40815818     0.18100
C517        C  0.14111284  0.50688345  0.35468237     0.15400
C518        C  0.14322047  0.53229543  0.32407622    -0.19100
C519        C  0.13848759  0.47890252  0.33263052    -0.20900
C520        C  0.13824419  0.45353193  0.36321046    -0.13500
C521        C  0.13956266  0.45582549  0.41626269     0.03200
C522        C  0.14120314  0.48383653  0.43867071    -0.25600
H523        H  0.15367554  0.58354666  0.41674191     0.08300
H524        H  0.14830663  0.53952854  0.47088496     0.11900
H525        H  0.14225534  0.53034827  0.28309290     0.11800
H526        H  0.13750246  0.47659558  0.29173459     0.11500
H527        H  0.13720458  0.43203530  0.34545758     0.12100
H528        H  0.14290349  0.48559381  0.47964065     0.14000
C529        C  0.18213715  0.46683568  0.09943919    -0.06000
C530        C  0.18692109  0.46470707  0.15219594    -0.05900
C531        C  0.19201449  0.49005512  0.18116415    -0.24100
C532        C  0.19303908  0.51804691  0.15785092     0.18100
C533        C  0.18887853  0.52037363  0.10467228     0.15400
C534        C  0.18320389  0.49486278  0.07596716    -0.19100
C535        C  0.18956949  0.54831727  0.08131926    -0.20900
C536        C  0.19250623  0.57380420  0.11050644    -0.13500
C537        C  0.19504599  0.57196396  0.16364245     0.03200
C538        C  0.19649993  0.54386746  0.18695969    -0.25600
H539        H  0.18657944  0.44337588  0.17108698     0.08300
H540        H  0.19500752  0.48776039  0.22193886     0.11900
H541        H  0.18005708  0.49678367  0.03516294     0.11800
H542        H  0.18603799  0.55064756  0.04074176     0.11500
H543        H  0.19041797  0.59517685  0.09194780     0.12100
H544        H  0.19731503  0.54221170  0.22811852     0.14000
C545        C  0.83875386  0.54140293  0.81693297    -0.06000
C546        C  0.85181962  0.51741995  0.79143851    -0.05900
C547        C  0.84873220  0.48853869  0.80953576    -0.24100
C548        C  0.83265662  0.48277171  0.85393342     0.18100
C549        C  0.81899604  0.50636551  0.88001911     0.15400
C550        C  0.82202606  0.53560658  0.86129472    -0.19100
C551        C  0.80320752  0.50021682  0.92490219    -0.20900
C552        C  0.80280465  0.47142264  0.94535213    -0.13500
C553        C  0.81782485  0.44812905  0.92096283     0.03200
C554        C  0.83143865  0.45390787  0.87387566    -0.25600
H555        H  0.86438881  0.52090846  0.75685854     0.08300
H556        H  0.85928809  0.47068931  0.78902670     0.11900
H557        H  0.81135998  0.55368091  0.88102258     0.11800
H558        H  0.79239978  0.51787139  0.94545449     0.11500
H559        H  0.79245420  0.46784485  0.98195894     0.12100
H560        H  0.84319224  0.43631275  0.85455850     0.14000
C561        C  0.94856987  0.62649430  0.74812502    -0.06000
C562        C  0.96080146  0.59918713  0.76371808    -0.05900
C563        C  0.99170471  0.59537312  0.76867186    -0.24100
C564        C  0.01121883  0.61869015  0.75754287     0.18100
C565        C  0.99932217  0.64618037  0.74135901     0.15400
C566        C  0.96814617  0.64997538  0.73705193    -0.19100
C567        C  0.01884552  0.66943366  0.72992347    -0.20900
C568        C  0.04972778  0.66572547  0.73537113    -0.13500
C569        C  0.06194315  0.63863111  0.75211431     0.03200
C570        C  0.04236479  0.61505154  0.76269057    -0.25600
H571        H  0.94638278  0.58071734  0.77249032     0.08300
H572        H  0.00034185  0.57412711  0.78116698     0.11900
H573        H  0.95915759  0.67108323  0.72447764     0.11800
H574        H  0.01021230  0.69064549  0.71719904     0.11500
H575        H  0.06408940  0.68426755  0.72686091     0.12100
H576        H  0.05127922  0.59404044  0.77586850     0.14000
C577        C  0.78622688  0.56839177  0.66427637    -0.06000
C578        C  0.78215067  0.56759989  0.61152278    -0.05900
C579        C  0.77832281  0.54055207  0.58703917    -0.24100
C580        C  0.78038820  0.51398054  0.61489244     0.18100
C581        C  0.78292964  0.51479192  0.66838214     0.15400
C582        C  0.78424208  0.54210863  0.69291670    -0.19100
C583        C  0.78771655  0.48847217  0.69595232    -0.20900
C584        C  0.79251108  0.46193355  0.67033454    -0.13500
C585        C  0.79086629  0.46108704  0.61720017     0.03200
C586        C  0.78324966  0.48689675  0.58981308    -0.25600
H587        H  0.78402428  0.58765743  0.58900303     0.08300
H588        H  0.77656734  0.54030901  0.54606165     0.11900
H589        H  0.78811520  0.54260590  0.73342017     0.11800
H590        H  0.79006549  0.48880798  0.73678224     0.11500
H591        H  0.79875784  0.44230535  0.69184942     0.12100
H592        H  0.78290489  0.48651034  0.54869861     0.14000
C593        C  0.83050901  0.47838368  0.44820995    -0.06000
C594        C  0.84553993  0.50184766  0.47168089    -0.05900
C595        C  0.84038479  0.53087803  0.45654747    -0.24100
C596        C  0.82047624  0.53710501  0.41697857     0.18100
C597        C  0.80571372  0.51384179  0.39190522     0.15400
C598        C  0.81070276  0.48449056  0.40785686    -0.19100
C599        C  0.78653426  0.52047742  0.35112869    -0.20900
C600        C  0.78369905  0.54962513  0.33336597    -0.13500
C601        C  0.79954200  0.57260462  0.35681184     0.03200
C602        C  0.81640825  0.56624379  0.40055640    -0.25600
H603        H  0.86071061  0.49791212  0.50313680     0.08300
H604        H  0.85207379  0.54848950  0.47578680     0.11900
H605        H  0.79879447  0.46663467  0.38973579     0.11800
H606        H  0.77496094  0.50300087  0.33138215     0.11500
H607        H  0.77091612  0.55378700  0.29906798     0.12100
H608        H  0.82888419  0.58365651  0.41896591     0.14000
C609        C  0.94137266  0.64240396  0.24330005    -0.06000
C610        C  0.95490630  0.61530020  0.23113917    -0.05900
C611        C  0.98571633  0.61176960  0.23480616    -0.24100
C612        C  0.00348705  0.63522064  0.25112618     0.18100
C613        C  0.99016505  0.66276922  0.26246677     0.15400
C614        C  0.95921047  0.66626726  0.25803147    -0.19100
C615        C  0.00800831  0.68622543  0.27867022    -0.20900
C616        C  0.03885035  0.68265517  0.28231749    -0.13500
C617        C  0.05227564  0.65546522  0.27053563     0.03200
C618        C  0.03438774  0.63165560  0.25577452    -0.25600
H619        H  0.94153477  0.59654473  0.22004727     0.08300
H620        H  0.99557505  0.59055813  0.22574287     0.11900
H621        H  0.94891734  0.68710134  0.26830384     0.11800
H622        H  0.99817423  0.70745289  0.28771599     0.11500
H623        H  0.05230977  0.70135343  0.29339552     0.12100
H624        H  0.04461103  0.61074614  0.24577037     0.14000
C625        C  0.86461500  0.67302579  0.59186987    -0.06000
C626        C  0.83800564  0.68600202  0.57424444    -0.05900
C627        C  0.83462257  0.69383499  0.52306718    -0.24100
C628        C  0.85804467  0.68923772  0.48893035     0.18100
C629        C  0.88580796  0.67858414  0.50745637     0.15400
C630        C  0.88881541  0.67017607  0.55875343    -0.19100
C631        C  0.90942821  0.67455128  0.47362144    -0.20900
C632        C  0.90454316  0.67747558  0.42147461    -0.13500
C633        C  0.87607448  0.68457162  0.40241451     0.03200
C634        C  0.85342751  0.69253603  0.43626299    -0.25600
H635        H  0.81922589  0.68859320  0.59963994     0.08300
H636        H  0.81332304  0.70227480  0.50983399     0.11900
H637        H  0.90951189  0.66056358  0.57252733     0.11800
H638        H  0.93100228  0.66700108  0.48711430     0.11500
H639        H  0.92225725  0.67128017  0.39572384     0.12100
H640        H  0.83137223  0.69771313  0.42172066     0.14000
C641        C  0.85111352  0.66840726  0.90609695    -0.06000
C642        C  0.87925697  0.67020240  0.92934538    -0.05900
C643        C  0.88161068  0.67318888  0.98211609    -0.24100
C644        C  0.85584723  0.67434125  0.01213359     0.18100
C645        C  0.82753933  0.67420465  0.98836121     0.15400
C646        C  0.82540722  0.67154248  0.93573186    -0.19100
C647        C  0.80166293  0.67517318  0.01768911    -0.20900
C648        C  0.80370045  0.67426903  0.07035135    -0.13500
C649        C  0.83163187  0.67278840  0.09457322     0.03200
C650        C  0.85774037  0.67405220  0.06541931    -0.25600
H651        H  0.89936479  0.66805801  0.90704373     0.08300
H652        H  0.90350601  0.67348091  0.99957463     0.11900
H653        H  0.80357173  0.67069822  0.91804330     0.11800
H654        H  0.77984108  0.67536760  0.99993918     0.11500
H655        H  0.78331185  0.67377907  0.09222435     0.12100
H656        H  0.87932405  0.67288362  0.08397543     0.14000
C657        C  0.86593460  0.46324179  0.08274469    -0.06000
C658        C  0.86798127  0.48848648  0.05156828    -0.05900
C659        C  0.86391979  0.51655720  0.07194746    -0.24100
C660        C  0.85801074  0.51968039  0.12382111     0.18100
C661        C  0.85782876  0.49438107  0.15586225     0.15400
C662        C  0.86178461  0.46632863  0.13510097    -0.19100
C663        C  0.85260080  0.49742942  0.20788799    -0.20900
C664        C  0.84703112  0.52526461  0.22788799    -0.13500
C665        C  0.84619790  0.55035593  0.19610158     0.03200
C666        C  0.85178117  0.54755511  0.14409050    -0.25600
H667        H  0.87089210  0.48643754  0.01089547     0.08300
H668        H  0.86442374  0.53566929  0.04694810     0.11900
H669        H  0.86035541  0.44686949  0.15921739     0.11800
H670        H  0.85256163  0.47833909  0.23293804     0.11500
H671        H  0.84295953  0.52717496  0.26829963     0.12100
H672        H  0.85169566  0.56700004  0.11979571     0.14000
C673        C  0.75812825  0.32451079  0.55658750    -0.06000
C674        C  0.72980244  0.33574565  0.56895136    -0.05900
C675        C  0.70671736  0.31666969  0.58287823    -0.24100
C676        C  0.71161649  0.28604596  0.58487949     0.18100
C677        C  0.74008391  0.27466823  0.57265426     0.15400
C678        C  0.76301034  0.29386829  0.55855701    -0.19100
C679        C  0.74530604  0.24420761  0.57481368    -0.20900
C680        C  0.72266224  0.22510728  0.58948273    -0.13500
C681        C  0.69423759  0.23600795  0.60193730     0.03200
C682        C  0.68871134  0.26658675  0.59911826    -0.25600
H683        H  0.72542341  0.35929992  0.56762027     0.08300
H684        H  0.68510091  0.32585403  0.59212564     0.11900
H685        H  0.78469836  0.28486074  0.54910033     0.11800
H686        H  0.76695406  0.23513966  0.56536704     0.11500
H687        H  0.72742366  0.20162005  0.59072542     0.12100
H688        H  0.66687040  0.27519995  0.60855651     0.14000
C689        C  0.70465938  0.23725229  0.11793269    -0.06000
C690        C  0.73346848  0.23089545  0.13595219    -0.05900
C691        C  0.75771621  0.24803982  0.12093801    -0.24100
C692        C  0.75380738  0.27167338  0.08677039     0.18100
C693        C  0.72494411  0.27888998  0.06891769     0.15400
C694        C  0.70040425  0.26170242  0.08493842    -0.19100
C695        C  0.72144526  0.30275184  0.03467611    -0.20900
C696        C  0.74619502  0.31949981  0.01909728    -0.13500
C697        C  0.77498718  0.31223953  0.03651211     0.03200
C698        C  0.77843705  0.28807374  0.07015146    -0.25600
H699        H  0.73735978  0.21186961  0.16036895     0.08300
H700        H  0.77974966  0.24227220  0.13503997     0.11900
H701        H  0.67839295  0.26622729  0.06947017     0.11800
H702        H  0.69951381  0.30866268  0.02034893     0.11500
H703        H  0.74283527  0.33816484  0.99371732     0.12100
H704        H  0.80039528  0.28247284  0.08486878     0.14000
C705        C  0.66575209  0.17417116  0.96596907    -0.06000
C706        C  0.67020966  0.20202839  0.94337693    -0.05900
C707        C  0.67046452  0.20526675  0.89087682    -0.24100
C708        C  0.66613576  0.18068482  0.86001354     0.18100
C709        C  0.66372883  0.15216304  0.88204865     0.15400
C710        C  0.66389480  0.14899243  0.93525756    -0.19100
C711        C  0.65960840  0.12767661  0.85043019    -0.20900
C712        C  0.65649532  0.13168797  0.79786017    -0.13500
C713        C  0.65729759  0.16021796  0.77638624     0.03200
C714        C  0.66286560  0.18448770  0.80759534    -0.25600
H715        H  0.67220716  0.22164048  0.96649844     0.08300
H716        H  0.67276302  0.22717379  0.87448793     0.11900
H717        H  0.66047806  0.12746220  0.95252383     0.11800
H718        H  0.65788821  0.10563866  0.86642609     0.11500
H719        H  0.65229062  0.11264138  0.77425699     0.12100
H720        H  0.66386544  0.20651815  0.79120105     0.14000
C721        C  0.65959850  0.14880962  0.46278168    -0.06000
C722        C  0.67402687  0.17361092  0.44225999    -0.05900
C723        C  0.68124309  0.17468330  0.39064529    -0.24100
C724        C  0.67441158  0.15076029  0.35917805     0.18100
C725        C  0.66202769  0.12482709  0.38077892     0.15400
C726        C  0.65458296  0.12407959  0.43240856    -0.19100
C727        C  0.65527168  0.10082839  0.34970763    -0.20900
C728        C  0.65763016  0.10366012  0.29716074    -0.13500
C729        C  0.66722409  0.13028876  0.27499623     0.03200
C730        C  0.67738770  0.15317004  0.30614834    -0.25600
H731        H  0.67826325  0.19277090  0.46560625     0.08300
H732        H  0.69092808  0.19461216  0.37499975     0.11900
H733        H  0.64387634  0.10478287  0.44856000     0.11800
H734        H  0.64620382  0.08068962  0.36568430     0.11500
H735        H  0.64969601  0.08582117  0.27350833     0.12100
H736        H  0.68440542  0.17385761  0.28914139     0.14000
C737        C  0.69466143  0.77751234  0.67274492    -0.06000
C738        C  0.68195600  0.74979137  0.68357690    -0.05900
C739        C  0.69968022  0.72617191  0.70134527    -0.24100
C740        C  0.73045290  0.72983199  0.70899942     0.18100
C741        C  0.74319484  0.75782677  0.69940761     0.15400
C742        C  0.72537079  0.78127808  0.68127430    -0.19100
C743        C  0.77370293  0.76195402  0.70760504    -0.20900
C744        C  0.79165727  0.73853546  0.72418704    -0.13500
C745        C  0.77968954  0.71024043  0.73274939     0.03200
C746        C  0.74881102  0.70608865  0.72543585    -0.25600
H747        H  0.65837647  0.74623442  0.67760822     0.08300
H748        H  0.68933549  0.70497555  0.70873685     0.11900
H749        H  0.73554607  0.80255294  0.67365378     0.11800
H750        H  0.78381728  0.78332254  0.70067203     0.11500
H751        H  0.81523900  0.74254755  0.72931819     0.12100
H752        H  0.73916612  0.68448123  0.73206597     0.14000
C753        C  0.62235677  0.06647959  0.61074910    -0.06000
C754        C  0.59756541  0.05111428  0.59215150    -0.05900
C755        C  0.59864268  0.02044748  0.58673389    -0.24100
C756        C  0.62445676  0.00459587  0.60023199     0.18100
C757        C  0.64939646  0.01970734  0.61971773     0.15400
C758        C  0.64821440  0.05056247  0.62474483    -0.19100
C759        C  0.67504675  0.00366733  0.63377305    -0.20900
C760        C  0.67571073  0.97282833  0.62963548    -0.13500
C761        C  0.65079556  0.95757755  0.61113222     0.03200
C762        C  0.62545480  0.97379635  0.59554670    -0.25600
H763        H  0.57762387  0.06291533  0.58037015     0.08300
H764        H  0.57932582  0.00913871  0.57176689     0.11900
H765        H  0.66750185  0.06221172  0.63908238     0.11800
H766        H  0.69434027  0.01490419  0.64897975     0.11500
H767        H  0.69522804  0.96084513  0.64285463     0.12100
H768        H  0.60595939  0.96233240  0.58154212     0.14000
C769        C  0.68386308  0.77424401  0.16453877    -0.06000
C770        C  0.67626101  0.74486044  0.15391136    -0.05900
C771        C  0.69404908  0.72146076  0.17226578    -0.24100
C772        C  0.71931626  0.72712144  0.20239122     0.18100
C773        C  0.72643290  0.75664883  0.21433893     0.15400
C774        C  0.70889975  0.77983291  0.19514296    -0.19100
C775        C  0.75133755  0.76269057  0.24461533    -0.20900
C776        C  0.77017836  0.73985464  0.26049430    -0.13500
C777        C  0.76430100  0.71050112  0.24705314     0.03200
C778        C  0.73822231  0.70406749  0.21933547    -0.25600
H779        H  0.65671707  0.74004356  0.13127108     0.08300
H780        H  0.68809383  0.69897539  0.16282769     0.11900
H781        H  0.71452960  0.80238279  0.20491461     0.11800
H782        H  0.75689954  0.78523522  0.25440940     0.11500
H783        H  0.79024496  0.74527866  0.28137811     0.12100
H784        H  0.73384245  0.68152533  0.20790612     0.14000
C785        C  0.63712837  0.95369234  0.11690366    -0.06000
C786        C  0.66477452  0.96544709  0.13158791    -0.05900
C787        C  0.66926040  0.99595774  0.13245544    -0.24100
C788        C  0.64624624  0.01538562  0.11830888     0.18100
C789        C  0.61828173  0.00387764  0.10364693     0.15400
C790        C  0.61383911  0.97313329  0.10327541    -0.19100
C791        C  0.59523415  0.02334586  0.08973170    -0.20900
C792        C  0.59963377  0.05387613  0.09133387    -0.13500
C793        C  0.62723897  0.06558124  0.10645858     0.03200
C794        C  0.65061414  0.04611221  0.11927805    -0.25600
H795        H  0.68304391  0.95098317  0.14248962     0.08300
H796        H  0.69079336  0.00435417  0.14407811     0.11900
H797        H  0.59244651  0.96436820  0.09168218     0.11800
H798        H  0.57365515  0.01497862  0.07830421     0.11500
H799        H  0.58120378  0.06839086  0.08152042     0.12100
H800        H  0.67186373  0.05484504  0.13173081     0.14000
C801        C  0.66526269  0.86584896  0.97222638    -0.06000
C802        C  0.67812995  0.84060877  0.95057904    -0.05900
C803        C  0.68430421  0.83999887  0.89838476    -0.24100
C804        C  0.67778146  0.86470442  0.86746480     0.18100
C805        C  0.66698897  0.89086547  0.89015253     0.15400
C806        C  0.66087621  0.89123898  0.94222232    -0.19100
C807        C  0.66041069  0.91564281  0.85991399    -0.20900
C808        C  0.66160665  0.91369565  0.80720652    -0.13500
C809        C  0.66991278  0.88715481  0.78389499     0.03200
C810        C  0.67965675  0.86315217  0.81414343    -0.25600
H811        H  0.68173407  0.82086949  0.97336242     0.08300
H812        H  0.69281659  0.81981629  0.88187415     0.11900
H813        H  0.65124978  0.91088096  0.95906965     0.11800
H814        H  0.65255681  0.93597618  0.87687330     0.11500
H815        H  0.65438699  0.93248880  0.78445733     0.12100
H816        H  0.68599249  0.84255917  0.79631552     0.14000
C817        C  0.67372066  0.84228927  0.47654964    -0.06000
C818        C  0.67630581  0.81467419  0.45301926    -0.05900
C819        C  0.67577627  0.81250852  0.40023565    -0.24100
C820        C  0.67188763  0.83788516  0.37009718     0.18100
C821        C  0.67091056  0.86601596  0.39303187     0.15400
C822        C  0.67237161  0.86808623  0.44632189    -0.19100
C823        C  0.66666881  0.89129124  0.36236306    -0.20900
C824        C  0.66179070  0.88850791  0.30995052    -0.13500
C825        C  0.66105078  0.86042880  0.28771128     0.03200
C826        C  0.66715845  0.83534441  0.31774002    -0.25600
H827        H  0.67756453  0.79459305  0.47562466     0.08300
H828        H  0.67685581  0.79083113  0.38310294     0.03900
H829        H  0.67012692  0.88946668  0.46425907     0.11800
H830        H  0.66596176  0.91306177  0.37916318     0.11500
H831        H  0.65719437  0.90809166  0.28729202     0.12100
H832        H  0.66703229  0.81362818  0.30053938     0.14000
C833        C  0.29272301  0.22576383  0.88358552    -0.06000
C834        C  0.26220654  0.21906119  0.88590929    -0.05900
C835        C  0.24177245  0.23965066  0.90440390    -0.24100
C836        C  0.25158726  0.26716004  0.92166356     0.18100
C837        C  0.28197155  0.27477819  0.91679088     0.15400
C838        C  0.30229875  0.25418756  0.89700789    -0.19100
C839        C  0.29175296  0.30228391  0.93422055    -0.20900
C840        C  0.27182635  0.32166881  0.95764204    -0.13500
C841        C  0.24180211  0.31386459  0.96431547     0.03200
C842        C  0.23172789  0.28671517  0.94533105    -0.25600
H843        H  0.25433690  0.19728139  0.87576454     0.08300
H844        H  0.21853897  0.23354200  0.90737663     0.11900
H845        H  0.32582111  0.25945496  0.89595125     0.11800
H846        H  0.31490642  0.30855774  0.93066174     0.11500
H847        H  0.28006303  0.34262156  0.97137467     0.12100
H848        H  0.20851648  0.28067977  0.94936870     0.14000
C849        C  0.42666033  0.19063530  0.75872378    -0.06000
C850        C  0.42476305  0.18478014  0.70638713    -0.05900
C851        C  0.45058498  0.18005058  0.67768398    -0.24100
C852        C  0.47871705  0.18005168  0.70123380     0.18100
C853        C  0.48074867  0.18675209  0.75351672     0.15400
C854        C  0.45489298  0.19294175  0.78136610    -0.19100
C855        C  0.50846305  0.18564869  0.77794468    -0.20900
C856        C  0.53406025  0.17838833  0.75089527    -0.13500
C857        C  0.53269369  0.17230489  0.69861512     0.03200
C858        C  0.50476485  0.17296940  0.67392910    -0.25600
H859        H  0.40320724  0.18196903  0.68846494     0.08300
H860        H  0.44843302  0.17483813  0.63775960     0.11900
H861        H  0.45660440  0.19633698  0.82201031     0.11800
H862        H  0.51037420  0.19038896  0.81809958     0.11500
H863        H  0.55521424  0.17822356  0.77086426     0.12100
H864        H  0.50340038  0.16877447  0.63351437     0.14000
C865        C  0.45622360  0.15341953  0.93010661    -0.06000
C866        C  0.48232892  0.14869928  0.90205016    -0.05900
C867        C  0.51024110  0.15172353  0.92525859    -0.24100
C868        C  0.51219208  0.15915116  0.97685925     0.18100
C869        C  0.48581907  0.16302379  0.00533291     0.15400
C870        C  0.45819011  0.16017240  0.98183178    -0.19100
C871        C  0.48733483  0.16984679  0.05699120    -0.20900
C872        C  0.51487053  0.17240816  0.08068388    -0.13500
C873        C  0.54116488  0.16878244  0.05285360     0.03200
C874        C  0.53990875  0.16255360  0.00077817    -0.25600
H875        H  0.48115603  0.14361858  0.86193617     0.08300
H876        H  0.53015837  0.14853903  0.90292688     0.11900
H877        H  0.43813363  0.16358887  0.00381476     0.11800
H878        H  0.46729321  0.17291639  0.07908653     0.11500
H879        H  0.51568562  0.17737706  0.12089857     0.12100
H880        H  0.56030787  0.15952726  0.97958259     0.14000
C881        C  0.22912132  0.31041293  0.50714806    -0.06000
C882        C  0.25735766  0.32383001  0.50501324    -0.05900
C883        C  0.28218264  0.30827573  0.48673075    -0.24100
C884        C  0.27919061  0.27914233  0.46954454     0.18100
C885        C  0.25114076  0.26521431  0.47349615     0.15400
C886        C  0.22660558  0.28066016  0.49298160    -0.19100
C887        C  0.24762598  0.23641040  0.45583143    -0.20900
C888        C  0.27137925  0.22162801  0.43343098    -0.13500
C889        C  0.29944753  0.23511306  0.42843966     0.03200
C890        C  0.30335204  0.26389655  0.44734917    -0.25600
H891        H  0.25997843  0.34680498  0.51514458     0.08300
H892        H  0.30347117  0.31943734  0.48421345     0.11900
H893        H  0.20498628  0.26996652  0.49392017     0.11800
H894        H  0.22625392  0.22537767  0.45861631     0.11500
H895        H  0.26767693  0.19937985  0.42011867     0.12100
H896        H  0.32488779  0.27452766  0.44410029     0.14000
C897        C  0.56195710  0.21007968  0.22482675    -0.06000
C898        C  0.53871318  0.22671435  0.20249548    -0.05900
C899        C  0.50990423  0.22616332  0.22334388    -0.24100
C900        C  0.50371083  0.20835189  0.26604614     0.18100
C901        C  0.52741011  0.19313428  0.29031250     0.15400
C902        C  0.55633181  0.19496885  0.27072724    -0.19100
C903        C  0.52164681  0.17468896  0.33198113    -0.20900
C904        C  0.49257891  0.17065767  0.34890915    -0.13500
C905        C  0.46846543  0.18528664  0.32515544     0.03200
C906        C  0.47429841  0.20458381  0.28395486    -0.25600
H907        H  0.54219845  0.23828019  0.16685942     0.08300
H908        H  0.49213715  0.23820458  0.20426736     0.11900
H909        H  0.57394764  0.18205168  0.28862313     0.11800
H910        H  0.53960393  0.16283833  0.35092907     0.11500
H911        H  0.48907486  0.15610265  0.38118098     0.12100
H912        H  0.45607465  0.21638670  0.26568128     0.14000
C913        C  0.33868881  0.13065097  0.53759187    -0.06000
C914        C  0.35209080  0.10461742  0.55641141    -0.05900
C915        C  0.34879525  0.09609264  0.60692529    -0.24100
C916        C  0.33226888  0.11364133  0.64004932     0.18100
C917        C  0.31695867  0.13889505  0.62128244     0.15400
C918        C  0.31991761  0.14711871  0.56959400    -0.19100
C919        C  0.30083337  0.15646264  0.65547483    -0.20900
C920        C  0.30213387  0.15053775  0.70791202    -0.13500
C921        C  0.31933690  0.12680432  0.72680109     0.03200
C922        C  0.33287325  0.10751318  0.69226022    -0.25600
H923        H  0.36639653  0.09144040  0.53231779     0.08300
H924        H  0.36051678  0.07660561  0.62067124     0.11900
H925        H  0.30968139  0.16733953  0.55550915     0.11800
H926        H  0.28874214  0.17579715  0.64204337     0.11500
H927        H  0.29161471  0.16582088  0.73380044     0.12100
H928        H  0.34610261  0.08905190  0.70634987     0.14000
C929        C  0.34175207  0.15847362  0.03907456    -0.06000
C930        C  0.33627761  0.13188503  0.06551661    -0.05900
C931        C  0.33594130  0.13099169  0.11883231    -0.24100
C932        C  0.34089472  0.15669892  0.14712085     0.18100
C933        C  0.34604583  0.18361461  0.12101661     0.15400
C934        C  0.34657031  0.18431770  0.06744241    -0.19100
C935        C  0.35088153  0.20937847  0.14896157    -0.20900
C936        C  0.35119740  0.20850665  0.20208169    -0.13500
C937        C  0.34666029  0.18184816  0.22893224     0.03200
C938        C  0.34119007  0.15595357  0.20089004    -0.25600
H939        H  0.33266737  0.11159978  0.04494168     0.08300
H940        H  0.33196556  0.11006490  0.13797869     0.11900
H941        H  0.35082139  0.20506140  0.04783797     0.11800
H942        H  0.35477477  0.23028461  0.12967262     0.11500
H943        H  0.35545689  0.22881834  0.22219420     0.12100
H944        H  0.33778944  0.13515156  0.22077910     0.14000
C945        C  0.44257332  0.22337434  0.48994462    -0.06000
C946        C  0.44351203  0.22335686  0.54318689    -0.05900
C947        C  0.47056294  0.22789030  0.56863717    -0.24100
C948        C  0.49720760  0.23032050  0.54102883     0.18100
C949        C  0.49612932  0.23141825  0.48739290     0.15400
C950        C  0.46864253  0.22933677  0.46239155    -0.19100
C951        C  0.52269358  0.23119708  0.45945792    -0.20900
C952        C  0.54996536  0.22698730  0.48426133    -0.13500
C953        C  0.55118662  0.22454755  0.53736930     0.03200
C954        C  0.52492728  0.22820375  0.56576869    -0.25600
H955        H  0.42367040  0.21840892  0.56491724     0.08300
H956        H  0.47100619  0.22702954  0.60969618     0.11900
H957        H  0.46811907  0.22852415  0.42124647     0.11800
H958        H  0.52217835  0.23166483  0.41833080     0.11500
H959        H  0.56989070  0.22367545  0.46183353     0.12100
H960        H  0.52565350  0.22541678  0.60665990     0.14000
C961        C  0.30432479  0.76259352  0.87551688    -0.06000
C962        C  0.27470155  0.76731593  0.89082669    -0.05900
C963        C  0.25221680  0.74825456  0.87563034    -0.24100
C964        C  0.25900343  0.72421740  0.84472237     0.18100
C965        C  0.28904740  0.71772397  0.83276609     0.15400
C966        C  0.31168979  0.73685396  0.84885480    -0.19100
C967        C  0.29562489  0.69321995  0.80241494    -0.20900
C968        C  0.27257162  0.67603554  0.78268554    -0.13500
C969        C  0.24274881  0.68353387  0.79230438     0.03200
C970        C  0.23610735  0.70727873  0.82403338    -0.25600
H971        H  0.26861447  0.78695661  0.91171216     0.08300
H972        H  0.22935649  0.75319953  0.88581449     0.11900
H973        H  0.33444823  0.73318075  0.83667789     0.11800
H974        H  0.31847495  0.68770748  0.79319362     0.11500
H975        H  0.27796103  0.65732088  0.75896937     0.12100
H976        H  0.21305915  0.71255268  0.83256754     0.14000
C977        C  0.45010958  0.79792045  0.94953700    -0.06000
C978        C  0.47399930  0.79950467  0.91516869    -0.05900
C979        C  0.50345177  0.80073526  0.93260614    -0.24100
C980        C  0.50968708  0.79966238  0.98480634     0.18100
C981        C  0.48601298  0.79542460  0.01945918     0.15400
C982        C  0.45633247  0.79505901  0.00170719    -0.19100
C983        C  0.49232087  0.79345828  0.07153079    -0.20900
C984        C  0.52139699  0.79753533  0.08933953    -0.13500
C985        C  0.54476177  0.80426211  0.05561962     0.03200
C986        C  0.53884778  0.80444767  0.00309451    -0.25600
H987        H  0.46979382  0.80232642  0.87489123     0.08300
H988        H  0.52122838  0.80380352  0.90534091     0.11900
H989        H  0.43806896  0.79419717  0.02852476     0.11800
H990        H  0.47457552  0.78999124  0.09870346     0.11500
H991        H  0.52511727  0.79762599  0.13001559     0.12100
H992        H  0.55657425  0.80973518  0.97671684     0.14000
C993        C  0.35197621  0.94138559  0.89016568    -0.06000
C994        C  0.32334929  0.95371996  0.88414012    -0.05900
C995        C  0.31923533  0.98428382  0.88517340    -0.24100
C996        C  0.34368325  0.00290634  0.89250713     0.18100
C997        C  0.37246508  0.99057924  0.89920589     0.15400
C998        C  0.37642673  0.95997102  0.89783331    -0.19100
C999        C  0.39694776  0.00906217  0.90659011    -0.20900
C1000       C  0.39316165  0.03959516  0.90530034    -0.13500
C1001       C  0.36481981  0.05212049  0.89690005     0.03200
C1002       C  0.33998734  0.03364588  0.89187100    -0.25600
H1003       H  0.30410827  0.93973561  0.87858562     0.08300
H1004       H  0.29704610  0.99332427  0.88003011     0.11900
H1005       H  0.39851070  0.95064573  0.90317186     0.11800
H1006       H  0.41907897  0.99994406  0.91208674     0.11500
H1007       H  0.41264725  0.05344231  0.90935887     0.12100
H1008       H  0.31810858  0.04310604  0.88503334     0.14000
C1009       C  0.45500812  0.85391316  0.80002057    -0.06000
C1010       C  0.47455506  0.87672378  0.81323691    -0.05900
C1011       C  0.50373372  0.87681989  0.79514422    -0.24100
C1012       C  0.51398266  0.85375815  0.76439962     0.18100
C1013       C  0.49433506  0.83110401  0.74970923     0.15400
C1014       C  0.46480891  0.83153177  0.76712213    -0.19100
C1015       C  0.50478503  0.80814966  0.71875906    -0.20900
C1016       C  0.53435377  0.80791535  0.70182565    -0.13500
C1017       C  0.55404552  0.83035627  0.71631817     0.03200
C1018       C  0.54360211  0.85304900  0.74815949    -0.25600
H1019       H  0.46748972  0.89401523  0.83877029     0.08300
H1020       H  0.51852095  0.89449518  0.80634453     0.11900
H1021       H  0.44999674  0.81353774  0.75747099     0.11800
H1022       H  0.48997020  0.79059727  0.70707877     0.11500
H1023       H  0.54161397  0.79061792  0.67645928     0.12100
H1024       H  0.55822570  0.87097054  0.75889367     0.14000
C1025       C  0.30440688  0.78301066  0.33271407    -0.06000
C1026       C  0.31446540  0.75404105  0.34246030    -0.05900
C1027       C  0.29918527  0.72970892  0.32306933    -0.24100
C1028       C  0.27375402  0.73385410  0.29274476     0.18100
C1029       C  0.26427405  0.76298358  0.28062917     0.15400
C1030       C  0.27945422  0.78739190  0.30110149    -0.19100
C1031       C  0.23910688  0.76715248  0.24975566    -0.20900
C1032       C  0.22206158  0.74292239  0.23488655    -0.13500
C1033       C  0.22983219  0.71399994  0.25028827     0.03200
C1034       C  0.25665906  0.70947366  0.27696090    -0.25600
H1035       H  0.33385228  0.75019327  0.36630873     0.08300
H1036       H  0.30694114  0.70764390  0.33261115     0.11900
H1037       H  0.27191999  0.80967275  0.29255183     0.11800
H1038       H  0.23169671  0.78919522  0.23938916     0.11500
H1039       H  0.20143930  0.74698993  0.21438923     0.12100
H1040       H  0.26266920  0.68738031  0.28964854     0.14000
C1041       C  0.44611849  0.86688170  0.46854935    -0.06000
C1042       C  0.44382233  0.86612736  0.52168687    -0.05900
C1043       C  0.46939329  0.86695992  0.55218000    -0.24100
C1044       C  0.49777134  0.86758476  0.52999516     0.18100
C1045       C  0.50037832  0.86769129  0.47647142     0.15400
C1046       C  0.47450688  0.86796454  0.44608259    -0.19100
C1047       C  0.52880721  0.86669811  0.45438827    -0.20900
C1048       C  0.55435848  0.86519453  0.48503543    -0.13500
C1049       C  0.55195619  0.86562833  0.53818106     0.03200
C1050       C  0.52356985  0.86721983  0.56043328    -0.25600
H1051       H  0.42215551  0.86504121  0.53961336     0.08300
H1052       H  0.46699555  0.86653219  0.59311460     0.11900
H1053       H  0.47643382  0.86784023  0.40504123     0.11800
H1054       H  0.53125014  0.86645236  0.41347229     0.11500
H1055       H  0.57604066  0.86373740  0.46726476     0.12100
H1056       H  0.52155396  0.86686596  0.60147490     0.14000
C1057       C  0.37667257  0.07128140  0.38084412    -0.06000
C1058       C  0.40277359  0.05541927  0.39277976    -0.05900
C1059       C  0.40192077  0.02479363  0.40025938    -0.24100
C1060       C  0.37495905  0.00939396  0.39593100     0.18100
C1061       C  0.34867320  0.02483670  0.38262012     0.15400
C1062       C  0.34970773  0.05563020  0.37498951    -0.19100
C1063       C  0.32180579  0.00921308  0.37777211    -0.20900
C1064       C  0.32114915  0.97845421  0.38499787    -0.13500
C1065       C  0.34728697  0.96280788  0.39776002     0.03200
C1066       C  0.37400652  0.97872792  0.40404012    -0.25600
H1067       H  0.42367652  0.06682561  0.39827006     0.08300
H1068       H  0.42233064  0.01318479  0.41025321     0.11900
H1069       H  0.32928538  0.06751265  0.36606889     0.11800
H1070       H  0.30140154  0.02070921  0.36745434     0.11500
H1071       H  0.30044012  0.96682042  0.37890531     0.12100
H1072       H  0.39452099  0.96708616  0.41334003     0.14000
C1073       C  0.32783407  0.84818731  0.72466151    -0.06000
C1074       C  0.32257478  0.87704121  0.70629951    -0.05900
C1075       C  0.31901020  0.88246858  0.65401056    -0.24100
C1076       C  0.32043837  0.85910041  0.61924916     0.18100
C1077       C  0.32426762  0.82991868  0.63793274     0.15400
C1078       C  0.32795560  0.82471117  0.69014562    -0.19100
C1079       C  0.32553556  0.80636891  0.60399668    -0.20900
C1080       C  0.32482382  0.81167511  0.55187478    -0.13500
C1081       C  0.32282118  0.84064581  0.53229223     0.03200
C1082       C  0.31951440  0.86433388  0.56625918    -0.25600
H1083       H  0.32242330  0.89552991  0.73214363     0.08300
H1084       H  0.31596189  0.90501247  0.64068056     0.11900
H1085       H  0.33175236  0.80230766  0.70383478     0.11800
H1086       H  0.32817999  0.78384234  0.61773184     0.11500
H1087       H  0.32713216  0.79301010  0.52666787     0.12100
H1088       H  0.31814700  0.88678360  0.55165763     0.14000
C1089       C  0.32965244  0.89162660  0.22548898    -0.06000
C1090       C  0.34169279  0.91530822  0.19772495    -0.05900
C1091       C  0.34352623  0.91412389  0.14494375    -0.24100
C1092       C  0.33383887  0.88897433  0.11911156     0.18100
C1093       C  0.32017834  0.86562652  0.14617909     0.15400
C1094       C  0.31777411  0.86729084  0.19935128    -0.19100
C1095       C  0.31074338  0.84040778  0.11979560    -0.20900
C1096       C  0.31610867  0.83784113  0.06752602    -0.13500
C1097       C  0.33113571  0.86036052  0.04126817     0.03200
C1098       C  0.33909324  0.88620255  0.06703202    -0.25600
H1099       H  0.35093070  0.93423110  0.21709619     0.08300
H1100       H  0.35382983  0.93226189  0.12457787     0.11900
H1101       H  0.30879832  0.84874463  0.22053847     0.11800
H1102       H  0.30017161  0.82231750  0.13984376     0.11500
H1103       H  0.30980061  0.81776662  0.04818734     0.12100
H1104       H  0.35039353  0.90380892  0.04672445     0.14000
C1105       C  0.53125331  0.86221029  0.19497940    -0.06000
C1106       C  0.50828438  0.87877981  0.17211743    -0.05900
C1107       C  0.47878044  0.87422953  0.18632060    -0.24100
C1108       C  0.47192970  0.85297681  0.22343119     0.18100
C1109       C  0.49487453  0.83609586  0.24645641     0.15400
C1110       C  0.52438333  0.84094497  0.23229083    -0.19100
C1111       C  0.48795243  0.81506247  0.28395862    -0.20900
C1112       C  0.45886530  0.81288551  0.30206012    -0.13500
C1113       C  0.43643950  0.83135246  0.28207055     0.03200
C1114       C  0.44270296  0.84962401  0.24005090    -0.25600
H1115       H  0.51310688  0.89478595  0.14247663     0.08300
H1116       H  0.46136205  0.88737003  0.16845866     0.11900
H1117       H  0.54188708  0.82745167  0.24917958     0.11800
H1118       H  0.50529808  0.80165590  0.30143390     0.11500
H1119       H  0.45452367  0.79864132  0.33443273     0.12100
H1120       H  0.42543343  0.86369644  0.22383639     0.14000
loop_ 
_geom_bond_atom_site_label_1 
_geom_bond_atom_site_label_2 
_geom_bond_distance 
_geom_bond_site_symmetry_2 
_ccdc_geom_bond_type 
O1           C16   1.266       .  A
O1           Al9   1.909       .  S
C2           O12   1.266       .  A
C2            O3   1.262       .  A
C2         C1089   1.475       .  S
O3           Al5   1.902       .  S
O4            C6   1.272       .  A
O4           Al5   1.954       .  S
Al5          O13   1.973       .  S
Al5          O15   1.929       .  S
Al5          O14   1.775       .  S
C6           O19   1.260       .  A
C6         C1025   1.482       .  S
O7           C17   1.265       .  A
O7           Al9   1.933       .  S
O8           C21   1.267       .  A
O8          Al18   1.941       .  S
Al9          O22   1.902       .  S
Al9          O19   1.885       .  S
Al9          O14   1.771       .  S
O10          C17   1.254       .  A
O10         Al18   1.863       .  S
O11          C20   1.257       .  A
O11         Al18   1.873       .  S
O12         Al18   1.927       .  S
O13          C20   1.274       .  A
O14         Al18   1.762       .  S
O15          C16   1.270       .  A
C16        C1081   1.483       .  S
C17        C1113   1.467       .  S
C20        C1065   1.489       .  S
C21          O22   1.262       .  A
C21        C1041   1.478       .  S
O23          C38   1.261       .  A
O23         Al31   1.892       .  S
C24          O34   1.265       .  A
C24          O25   1.265       .  A
C24        C1097   1.475   1_556  S
O25         Al27   1.911       .  S
O26          C28   1.259       .  A
O26         Al27   1.899       .  S
Al27         O35   1.888       .  S
Al27         O37   1.918       .  S
Al27         O36   1.773       .  S
C28          O41   1.266       .  A
C28         C977   1.481       .  S
O29          C39   1.265       .  A
O29         Al31   1.913       .  S
O30          C43   1.264       .  A
O30         Al40   1.913       .  S
Al31         O44   1.928       .  S
Al31         O41   1.938       .  S
Al31         O36   1.787       .  S
O32          C39   1.260       .  A
O32         Al40   1.886       .  S
O33          C42   1.258       .  A
O33         Al40   1.898       .  S
O34         Al40   1.915       .  S
O35          C42   1.260       .  A
O36         Al40   1.781       .  S
O37          C38   1.265       .  A
C38        C1009   1.473       .  S
C39         C961   1.470       .  S
C42         C993   1.469       .  S
C43          O44   1.268       .  A
C43        C1073   1.484       .  S
O45          C60   1.269       .  A
O45         Al53   1.931       .  S
C46          O56   1.263       .  A
C46          O47   1.269       .  A
C46         C913   1.480       .  S
O47         Al49   1.936       .  S
O48          C50   1.262       .  A
O48         Al49   1.905       .  S
Al49         O57   1.900       .  S
Al49         O59   1.927       .  S
Al49         O58   1.784       .  S
C50          O63   1.264       .  A
C50         C889   1.487       .  S
O51          C61   1.259       .  A
O51         Al53   1.911       .  S
O52          C65   1.267       .  A
O52         Al62   1.915       .  S
Al53         O66   1.916       .  S
Al53         O63   1.925       .  S
Al53         O58   1.790       .  S
O54          C61   1.258       .  A
O54         Al62   1.904       .  S
O55          C64   1.265       .  A
O55         Al62   1.916       .  S
O56         Al62   1.898       .  S
O57          C64   1.258       .  A
O58         Al62   1.773       .  S
O59          C60   1.268       .  A
C60         C937   1.497       .  S
C61         C945   1.470       .  S
C64        C1057   1.486       .  S
C65          O66   1.267       .  A
C65         C905   1.489       .  S
O67          C82   1.257       .  A
O67         Al75   1.863       .  S
C68          O78   1.266       .  A
C68          O69   1.265       .  A
C68         C921   1.481       .  S
O69         Al71   1.919       .  S
O70          C72   1.254       .  A
O70         Al71   1.878       .  S
Al71         O79   1.870       .  S
Al71         O81   1.935       .  S
Al71         O80   1.769       .  S
C72          O85   1.273       .  A
C72         C849   1.477       .  S
O73          C83   1.265       .  A
O73         Al75   1.903       .  S
O74          C87   1.269       .  A
O74         Al84   1.916       .  S
Al75         O88   1.948       .  S
Al75         O85   1.968       .  S
Al75         O80   1.768       .  S
O76          C83   1.264       .  A
O76         Al84   1.911       .  S
O77          C86   1.269       .  A
O77         Al84   1.940       .  S
O78         Al84   1.921       .  S
O79          C86   1.257       .  A
O80         Al84   1.768       .  S
O81          C82   1.264       .  A
C82         C865   1.466       .  S
C83         C833   1.476       .  S
C86        C1001   1.470       .  S
C87          O88   1.273       .  A
C87         C929   1.496   1_556  S
O89         C104   1.259       .  A
O89         Al97   1.878       .  S
C90         O100   1.264       .  A
C90          O91   1.266       .  A
C90         C801   1.472   1_554  S
O91         Al93   1.917       .  S
O92          C94   1.264       .  A
O92         Al93   1.912       .  S
Al93        O101   1.902       .  S
Al93        O103   1.914       .  S
Al93        O102   1.781       .  S
C94         O107   1.265       .  A
C94         C985   1.487       .  S
O95         C105   1.263       .  A
O95         Al97   1.907       .  S
O96         C109   1.264       .  A
O96        Al106   1.914       .  S
Al97        O110   1.922       .  S
Al97        O107   1.928       .  S
Al97        O102   1.778       .  S
O98         C105   1.265       .  A
O98        Al106   1.916       .  S
O99         C108   1.263       .  A
O99        Al106   1.917       .  S
O100       Al106   1.909       .  S
O101        C108   1.261       .  A
O102       Al106   1.777       .  S
O103        C104   1.264       .  A
C104       C1105   1.465       .  S
C105        C769   1.479       .  S
C108        C785   1.482       .  S
C109        O110   1.265       .  A
C109        C825   1.475       .  S
O111        C126   1.270       .  A
O111       Al119   1.932       .  S
C112        O122   1.268       .  A
C112        O113   1.263       .  A
C112        C809   1.474       .  S
O113       Al115   1.905       .  S
O114        C116   1.271       .  A
O114       Al115   1.937       .  S
Al115       O123   1.958       .  S
Al115       O125   1.908       .  S
Al115       O124   1.773       .  S
C116        O129   1.267       .  A
C116        C737   1.491       .  S
O117        C127   1.269       .  A
O117       Al119   1.960       .  S
O118        C131   1.268       .  A
O118       Al128   1.939       .  S
Al119       O132   1.905       .  S
Al119       O129   1.914       .  S
Al119       O124   1.775       .  S
O120        C127   1.254       .  A
O120       Al128   1.868       .  S
O121        C130   1.255       .  A
O121       Al128   1.870       .  S
O122       Al128   1.928       .  S
O123        C130   1.270       .  A
O124       Al128   1.758       .  S
O125        C126   1.266       .  A
C126        C817   1.476       .  S
C127       C1017   1.481       .  S
C130        C761   1.480       .  S
C131        O132   1.263       .  A
C131       C1049   1.478       .  S
O133        C148   1.258       .  A
O133       Al141   1.895       .  S
C134        O144   1.265       .  A
C134        O135   1.260       .  A
C134        C729   1.468       .  S
O135       Al137   1.901       .  S
O136        C138   1.258       .  A
O136       Al137   1.876       .  S
Al137       O145   1.883       .  S
Al137       O147   1.905       .  S
Al137       O146   1.766       .  S
C138        O151   1.273       .  A
C138        C897   1.489       .  S
O139        C149   1.269       .  A
O139       Al141   1.916       .  S
O140        C153   1.266       .  A
O140       Al150   1.912       .  S
Al141       O154   1.904       .  S
Al141       O151   1.972       .  S
Al141       O146   1.783       .  S
O142        C149   1.266       .  A
O142       Al150   1.918       .  S
O143        C152   1.270       .  A
O143       Al150   1.951       .  S
O144       Al150   1.921       .  S
O145        C152   1.259       .  A
O146       Al150   1.772       .  S
O147        C148   1.259       .  A
C148        C873   1.457       .  S
C149        C689   1.483       .  S
C152        C793   1.481       .  S
C153        O154   1.265       .  A
C153        C705   1.470   1_554  S
O155        C170   1.269       .  A
O155       Al163   1.930       .  S
C156        O166   1.270       .  A
C156        O157   1.259       .  A
C156        C721   1.467       .  S
O157       Al159   1.883       .  S
O158        C160   1.265       .  A
O158       Al159   1.912       .  S
Al159       O167   1.906       .  S
Al159       O169   1.894       .  S
Al159       O168   1.773       .  S
C160        O173   1.265       .  A
C160        C681   1.476       .  S
O161        C171   1.262       .  A
O161       Al163   1.931       .  S
O162        C175   1.274       .  A
O162       Al172   1.963       .  S
Al163       O176   1.877       .  S
Al163       O173   1.907       .  S
Al163       O168   1.776       .  S
O164        C171   1.257       .  A
O164       Al172   1.892       .  S
O165        C174   1.263       .  A
O165       Al172   1.904       .  S
O166       Al172   1.939       .  S
O167        C174   1.260       .  A
O168       Al172   1.770       .  S
O169        C170   1.261       .  A
C170        C713   1.472       .  S
C171        C953   1.472       .  S
C174        C753   1.478       .  S
C175        O176   1.262       .  A
C175        C857   1.484       .  S
O177        C192   1.263       .  A
O177       Al185   1.912       .  S
C178        O188   1.264       .  A
C178        O179   1.257       .  A
C178        C633   1.469       .  S
O179       Al181   1.891       .  S
O180        C182   1.260       .  A
O180       Al181   1.880       .  S
Al181       O189   1.875       .  S
Al181       O191   1.896       .  S
Al181       O190   1.765       .  S
C182        O195   1.267       .  A
C182        C601   1.477       .  S
O183        C193   1.267       .  A
O183       Al185   1.908       .  S
O184        C197   1.264       .  A
O184       Al194   1.910       .  S
Al185       O198   1.896       .  S
Al185       O195   1.941       .  S
Al185       O190   1.785       .  S
O186        C193   1.266       .  A
O186       Al194   1.910       .  S
O187        C196   1.269       .  A
O187       Al194   1.942       .  S
O188       Al194   1.928       .  S
O189        C196   1.258       .  A
O190       Al194   1.773       .  S
O191        C192   1.257       .  A
C192        C665   1.463       .  S
C193        C777   1.476       .  S
C196        C609   1.472       .  S
C197        O198   1.262       .  A
C197        C649   1.469       .  S
O199        C214   1.266       .  A
O199       Al207   1.912       .  S
C200        O210   1.268       .  A
C200        O201   1.257       .  A
C200        C625   1.472       .  S
O201       Al203   1.885       .  S
O202        C204   1.267       .  A
O202       Al203   1.925       .  S
Al203       O211   1.942       .  S
Al203       O213   1.900       .  S
Al203       O212   1.780       .  S
C204        O217   1.265       .  A
C204        C745   1.491       .  S
O205        C215   1.259       .  A
O205       Al207   1.911       .  S
O206        C219   1.270       .  A
O206       Al216   1.932       .  S
Al207       O220   1.917       .  S
Al207       O217   1.919       .  S
Al207       O212   1.789       .  S
O208        C215   1.259       .  A
O208       Al216   1.901       .  S
O209        C218   1.262       .  A
O209       Al216   1.908       .  S
O210       Al216   1.941       .  S
O211        C218   1.266       .  A
O212       Al216   1.772       .  S
O213        C214   1.263       .  A
C214        C641   1.473       .  S
C215        C577   1.467       .  S
C218        C561   1.495       .  S
C219        O220   1.268       .  A
C219        C545   1.494       .  S
O221        C236   1.259       .  A
O221       Al229   1.895       .  S
C222        O232   1.267       .  A
C222        O223   1.264       .  A
C222        C481   1.471       .  S
O223       Al225   1.905       .  S
O224        C226   1.254       .  A
O224       Al225   1.870       .  S
Al225       O233   1.892       .  S
Al225       O235   1.919       .  S
Al225       O234   1.770       .  S
C226        O239   1.271       .  A
C226        C537   1.478       .  S
O227        C237   1.270       .  A
O227       Al229   1.935       .  S
O228        C241   1.266       .  A
O228       Al238   1.904       .  S
Al229       O242   1.926       .  S
Al229       O239   1.966       .  S
Al229       O234   1.785       .  S
O230        C237   1.259       .  A
O230       Al238   1.888       .  S
O231        C240   1.261       .  A
O231       Al238   1.911       .  S
O232       Al238   1.920       .  S
O233        C240   1.259       .  A
O234       Al238   1.775       .  S
O235        C236   1.262       .  A
C236        C513   1.474       .  S
C237       C1033   1.482       .  S
C240        C617   1.471       .  S
C241        O242   1.269       .  A
C241        C497   1.480       .  S
O243        C258   1.261       .  A
O243       Al251   1.904       .  S
C244        O254   1.264       .  A
C244        O245   1.256       .  A
C244        C489   1.471       .  S
O245       Al247   1.891       .  S
O246        C248   1.269       .  A
O246       Al247   1.927       .  S
Al247       O255   1.937       .  S
Al247       O257   1.918       .  S
Al247       O256   1.778       .  S
C248        O261   1.257       .  A
C248        C969   1.464       .  S
O249        C259   1.259       .  A
O249       Al251   1.904       .  S
O250        C263   1.269       .  A
O250       Al260   1.931       .  S
Al251       O264   1.877       .  S
Al251       O261   1.871       .  S
Al251       O256   1.781       .  S
O252        C259   1.262       .  A
O252       Al260   1.914       .  S
O253        C262   1.263       .  A
O253       Al260   1.906       .  S
O254       Al260   1.919       .  S
O255        C262   1.269       .  A
O256       Al260   1.781       .  S
O257        C258   1.262       .  A
C258        C505   1.481       .  S
C259        C457   1.471       .  S
C262        C569   1.496       .  S
C263        O264   1.262       .  A
C263        C473   1.472       .  S
O265        C280   1.266       .  A
O265       Al273   1.924       .  S
C266        O276   1.263       .  A
C266        O267   1.265       .  A
C266        C417   1.481       .  S
O267       Al269   1.923       .  S
O268        C270   1.266       .  A
O268       Al269   1.921       .  S
Al269       O277   1.929       .  S
Al269       O279   1.907       .  S
Al269       O278   1.780       .  S
C270        O283   1.260       .  A
C270        C673   1.479       .  S
O271        C281   1.264       .  A
O271       Al273   1.923       .  S
O272        C285   1.261       .  A
O272       Al282   1.895       .  S
Al273       O286   1.902       .  S
Al273       O283   1.890       .  S
Al273       O278   1.785       .  S
O274        C281   1.263       .  A
O274       Al282   1.903       .  S
O275        C284   1.261       .  A
O275       Al282   1.894       .  S
O276       Al282   1.907       .  S
O277        C284   1.266       .  A
O278       Al282   1.769       .  S
O279        C280   1.263       .  A
C280        C433   1.485       .  S
C281        C585   1.471       .  S
C284        C401   1.480       .  S
C285        O286   1.262       .  A
C285        C593   1.474       .  S
O287        C302   1.260       .  A
O287       Al295   1.887       .  S
C288        O298   1.268       .  A
C288        O289   1.264       .  A
C288        C425   1.484       .  S
O289       Al291   1.907       .  S
O290        C292   1.260       .  A
O290       Al291   1.891       .  S
Al291       O299   1.893   1_556  S
Al291       O301   1.908   1_556  S
Al291       O300   1.773   1_556  S
C292        O305   1.268       .  A
C292        C553   1.491       .  S
O293        C303   1.268       .  A
O293       Al295   1.923       .  S
O294        C307   1.271       .  A
O294       Al304   1.931       .  S
Al295       O308   1.915       .  S
Al295       O305   1.949   1_554  S
Al295       O300   1.779       .  S
O296        C303   1.267       .  A
O296       Al304   1.926       .  S
O297        C306   1.269       .  A
O297       Al304   1.955       .  S
O298       Al304   1.930   1_556  S
O299        C306   1.259       .  A
O300       Al304   1.776       .  S
O301        C302   1.261       .  A
C302        C657   1.463       .  S
C303        C697   1.491       .  S
C306        C393   1.493       .  S
C307        O308   1.266       .  A
C307        C441   1.485       .  S
O309        C324   1.266       .  A
O309       Al317   1.922       .  S
C310        O320   1.269       .  A
C310        O311   1.259       .  A
C310        C361   1.482       .  S
O311       Al313   1.889   1_556  S
O312        C314   1.268   1_554  A
O312       Al313   1.932       .  S
Al313       O321   1.931       .  S
Al313       O323   1.908       .  S
Al313       O322   1.776       .  S
C314        O327   1.261       .  A
C314        C841   1.481       .  S
O315        C325   1.261       .  A
O315       Al317   1.924   1_556  S
O316        C329   1.273       .  A
O316       Al326   1.959   1_554  S
Al317       O330   1.895       .  S
Al317       O327   1.892   1_554  S
Al317       O322   1.781       .  S
O318        C325   1.257       .  A
O318       Al326   1.891       .  S
O319        C328   1.264       .  A
O319       Al326   1.909   1_554  S
O320       Al326   1.947       .  S
O321        C328   1.266       .  A
O322       Al326   1.771   1_554  S
O323        C324   1.263       .  A
C324        C377   1.482       .  S
C325        C449   1.463       .  S
C328        C385   1.493       .  S
C329        O330   1.263       .  A
C329        C529   1.487       .  S
O331        C346   1.256       .  A
O331       Al339   1.892       .  S
C332        O342   1.273       .  A
C332        O333   1.264       .  A
C332        C353   1.488       .  S
O333       Al335   1.913       .  S
O334        C336   1.256       .  A
O334       Al335   1.857       .  S
Al335       O343   1.890       .  S
Al335       O345   1.923       .  S
Al335       O344   1.765       .  S
C336        O349   1.270       .  A
C336        C465   1.471       .  S
O337        C347   1.259       .  A
O337       Al339   1.900       .  S
O338        C351   1.269       .  A
O338       Al348   1.915       .  S
Al339       O352   1.920       .  S
Al339       O349   1.944       .  S
Al339       O344   1.772       .  S
O340        C347   1.265       .  A
O340       Al348   1.928       .  S
O341        C350   1.270       .  A
O341       Al348   1.945       .  S
O342       Al348   1.947       .  S
O343        C350   1.262       .  A
O344       Al348   1.772       .  S
O345        C346   1.260       .  A
C346        C521   1.470       .  S
C347        C881   1.488       .  S
C350        C409   1.481       .  S
C351        O352   1.270       .  A
C351        C369   1.477       .  S
C353        C354   1.410       .  A
C353        C358   1.407       .  A
C354        C355   1.395       .  A
C354        H363   1.083       .  S
C355        C356   1.398       .  A
C355        H364   1.084       .  S
C356        C362   1.409       .  A
C356        C357   1.417       .  A
C357        C359   1.402       .  A
C357        C358   1.414       .  A
C358        H365   1.084       .  S
C359        C360   1.400       .  A
C359        H366   1.084       .  S
C360        C361   1.407       .  A
C360        H367   1.084       .  S
C361        C362   1.403       .  A
C362        H368   1.085       .  S
C369        C370   1.405       .  A
C369        C374   1.404       .  A
C370        C371   1.403       .  A
C370        H379   1.083       .  S
C371        C372   1.406       .  A
C371        H380   1.084       .  S
C372        C378   1.410       .  A
C372        C373   1.414       .  A
C373        C375   1.399       .  A
C373        C374   1.400       .  A
C374        H381   1.086       .  S
C375        C376   1.393       .  A
C375        H382   1.084       .  S
C376        C377   1.406       .  A
C376        H383   1.083       .  S
C377        C378   1.410       .  A
C378        H384   1.084       .  S
C385        C386   1.407       .  A
C385        C390   1.412       .  A
C386        C387   1.401       .  A
C386        H395   1.083       .  S
C387        C388   1.404       .  A
C387        H396   1.083       .  S
C388        C394   1.409   1_455  A
C388        C389   1.412       .  A
C389        C391   1.405       .  A
C389        C390   1.411       .  A
C390        H397   1.084       .  S
C391        C392   1.403   1_455  A
C391        H398   1.083       .  S
C392        C393   1.406       .  A
C392        H399   1.083       .  S
C393        C394   1.412       .  A
C394        H400   1.084       .  S
C401        C402   1.406       .  A
C401        C406   1.407       .  A
C402        C403   1.397       .  A
C402        H411   1.083       .  S
C403        C404   1.402       .  A
C403        H412   1.084       .  S
C404        C410   1.403   1_655  A
C404        C405   1.413       .  A
C405        C407   1.402       .  A
C405        C406   1.404       .  A
C406        H413   1.085       .  S
C407        C408   1.398   1_655  A
C407        H414   1.084       .  S
C408        C409   1.406       .  A
C408        H415   1.083       .  S
C409        C410   1.407       .  A
C410        H416   1.085       .  S
C417        C418   1.406       .  A
C417        C422   1.410       .  A
C418        C419   1.390       .  A
C418        H427   1.083       .  S
C419        C420   1.398       .  A
C419        H428   1.084       .  S
C420        C426   1.399       .  A
C420        C421   1.414       .  A
C421        C423   1.407       .  A
C421        C422   1.413       .  A
C422        H429   1.084       .  S
C423        C424   1.407       .  A
C423        H430   1.084       .  S
C424        C425   1.406       .  A
C424        H431   1.083       .  S
C425        C426   1.405       .  A
C426        H432   1.085       .  S
C433        C434   1.406       .  A
C433        C438   1.411       .  A
C434        C435   1.396       .  A
C434        H443   1.083       .  S
C435        C436   1.401       .  A
C435        H444   1.084       .  S
C436        C442   1.402       .  A
C436        C437   1.412       .  A
C437        C439   1.407       .  A
C437        C438   1.410       .  A
C438        H445   1.084       .  S
C439        C440   1.405       .  A
C439        H446   1.084       .  S
C440        C441   1.404       .  A
C440        H447   1.083       .  S
C441        C442   1.409       .  A
C442        H448   1.085       .  S
C449        C450   1.402       .  A
C449        C454   1.403       .  A
C450        C451   1.396       .  A
C450        H459   1.083       .  S
C451        C452   1.404       .  A
C451        H460   1.083       .  S
C452        C458   1.399       .  A
C452        C453   1.413       .  A
C453        C455   1.404       .  A
C453        C454   1.401       .  A
C454        H461   1.083       .  S
C455        C456   1.399       .  A
C455        H462   1.079       .  S
C456        C457   1.402       .  A
C456        H463   1.084       .  S
C457        C458   1.406       .  A
C458        H464   1.084       .  S
C465        C466   1.403       .  A
C465        C470   1.407       .  A
C466        C467   1.397       .  A
C466        H475   1.082       .  S
C467        C468   1.404       .  A
C467        H476   1.085       .  S
C468        C474   1.398       .  A
C468        C469   1.411       .  A
C469        C471   1.402       .  A
C469        C470   1.395       .  A
C470        H477   1.086       .  S
C471        C472   1.395       .  A
C471        H478   1.085       .  S
C472        C473   1.405       .  A
C472        H479   1.082       .  S
C473        C474   1.407       .  A
C474        H480   1.086       .  S
C481        C482   1.405       .  A
C481        C486   1.405       .  A
C482        C483   1.390       .  A
C482        H491   1.084       .  S
C483        C484   1.397   1_554  A
C483        H492   1.084       .  S
C484        C490   1.399       .  A
C484        C485   1.416   1_556  A
C485        C487   1.404   1_554  A
C485        C486   1.409       .  A
C486        H493   1.084       .  S
C487        C488   1.401       .  A
C487        H494   1.083   1_556  S
C488        C489   1.406       .  A
C488        H495   1.083       .  S
C489        C490   1.399       .  A
C490        H496   1.085       .  S
C497        C498   1.407       .  A
C497        C502   1.404       .  A
C498        C499   1.402       .  A
C498        H507   1.083       .  S
C499        C500   1.404       .  A
C499        H508   1.084       .  S
C500        C506   1.411       .  A
C500        C501   1.415       .  A
C501        C503   1.398       .  A
C501        C502   1.401       .  A
C502        H509   1.085       .  S
C503        C504   1.392       .  A
C503        H510   1.084       .  S
C504        C505   1.407       .  A
C504        H511   1.083       .  S
C505        C506   1.408       .  A
C506        H512   1.084       .  S
C513        C514   1.405       .  A
C513        C518   1.404       .  A
C514        C515   1.398       .  A
C514        H523   1.084       .  S
C515        C516   1.403       .  A
C515        H524   1.083       .  S
C516        C522   1.404       .  A
C516        C517   1.415       .  A
C517        C519   1.403       .  A
C517        C518   1.402       .  A
C518        H525   1.084       .  S
C519        C520   1.397       .  A
C519        H526   1.083       .  S
C520        C521   1.403       .  A
C520        H527   1.084       .  S
C521        C522   1.405       .  A
C522        H528   1.085       .  S
C529        C530   1.407       .  A
C529        C534   1.407       .  A
C530        C531   1.402       .  A
C530        H539   1.082       .  S
C531        C532   1.404       .  A
C531        H540   1.085       .  S
C532        C538   1.411       .  A
C532        C533   1.415       .  A
C533        C535   1.402       .  A
C533        C534   1.409       .  A
C534        H541   1.086       .  S
C535        C536   1.398       .  A
C535        H542   1.084       .  S
C536        C537   1.405       .  A
C536        H543   1.083       .  S
C537        C538   1.408       .  A
C538        H544   1.086       .  S
C545        C546   1.407       .  A
C545        C550   1.414       .  A
C546        C547   1.395       .  A
C546        H555   1.084       .  S
C547        C548   1.399       .  A
C547        H556   1.083       .  S
C548        C554   1.405       .  A
C548        C549   1.413       .  A
C549        C551   1.407       .  A
C549        C550   1.416       .  A
C550        H557   1.083       .  S
C551        C552   1.406       .  A
C551        H558   1.082       .  S
C552        C553   1.409       .  A
C552        H559   1.083       .  S
C553        C554   1.407       .  A
C554        H560   1.084       .  S
C561        C562   1.407       .  A
C561        C566   1.411       .  A
C562        C563   1.402       .  A
C562        H571   1.083       .  S
C563        C564   1.404   1_655  A
C563        H572   1.083   1_655  S
C564        C570   1.413       .  A
C564        C565   1.413   1_455  A
C565        C567   1.404   1_655  A
C565        C566   1.413       .  A
C566        H573   1.084       .  S
C567        C568   1.402       .  A
C567        H574   1.083       .  S
C568        C569   1.407       .  A
C568        H575   1.083       .  S
C569        C570   1.412       .  A
C570        H576   1.084       .  S
C577        C578   1.401       .  A
C577        C582   1.406       .  A
C578        C579   1.399       .  A
C578        H587   1.084       .  S
C579        C580   1.406       .  A
C579        H588   1.082       .  S
C580        C586   1.402       .  A
C580        C581   1.413       .  A
C581        C583   1.405       .  A
C581        C582   1.401       .  A
C582        H589   1.080       .  S
C583        C584   1.398       .  A
C583        H590   1.080       .  S
C584        C585   1.401       .  A
C584        H591   1.085       .  S
C585        C586   1.408       .  A
C586        H592   1.083       .  S
C593        C594   1.407       .  A
C593        C598   1.408       .  A
C594        C595   1.388       .  A
C594        H603   1.083       .  S
C595        C596   1.396       .  A
C595        H604   1.084       .  S
C596        C602   1.395       .  A
C596        C597   1.413       .  A
C597        C599   1.403       .  A
C597        C598   1.406       .  A
C598        H605   1.084       .  S
C599        C600   1.401       .  A
C599        H606   1.084       .  S
C600        C601   1.408       .  A
C600        H607   1.083       .  S
C601        C602   1.403       .  A
C602        H608   1.085       .  S
C609        C610   1.406       .  A
C609        C614   1.404       .  A
C610        C611   1.394       .  A
C610        H619   1.083       .  S
C611        C612   1.400   1_655  A
C611        H620   1.084       .  S
C612        C618   1.400       .  A
C612        C613   1.415   1_455  A
C613        C615   1.401   1_655  A
C613        C614   1.402       .  A
C614        H621   1.085       .  S
C615        C616   1.396       .  A
C615        H622   1.084   1_455  S
C616        C617   1.405       .  A
C616        H623   1.083       .  S
C617        C618   1.403       .  A
C618        H624   1.084       .  S
C625        C626   1.404       .  A
C625        C630   1.401       .  A
C626        C627   1.398       .  A
C626        H635   1.084       .  S
C627        C628   1.401       .  A
C627        H636   1.083       .  S
C628        C634   1.408       .  A
C628        C629   1.417       .  A
C629        C631   1.399       .  A
C629        C630   1.406       .  A
C630        H637   1.084       .  S
C631        C632   1.395       .  A
C631        H638   1.083       .  S
C632        C633   1.406       .  A
C632        H639   1.084       .  S
C633        C634   1.402       .  A
C634        H640   1.084       .  S
C641        C642   1.405       .  A
C641        C646   1.403       .  A
C642        C643   1.401       .  A
C642        H651   1.083       .  S
C643        C644   1.404   1_556  A
C643        H652   1.084       .  S
C644        C650   1.405       .  A
C644        C645   1.414   1_554  A
C645        C647   1.398   1_556  A
C645        C646   1.395       .  A
C646        H653   1.084       .  S
C647        C648   1.389       .  A
C647        H654   1.084   1_554  S
C648        C649   1.405       .  A
C648        H655   1.083       .  S
C649        C650   1.404       .  A
C650        H656   1.084       .  S
C657        C658   1.405       .  A
C657        C662   1.400       .  A
C658        C659   1.394       .  A
C658        H667   1.084       .  S
C659        C660   1.400       .  A
C659        H668   1.083       .  S
C660        C666   1.401       .  A
C660        C661   1.417       .  A
C661        C663   1.398       .  A
C661        C662   1.397       .  A
C662        H669   1.084       .  S
C663        C664   1.391       .  A
C663        H670   1.083       .  S
C664        C665   1.405       .  A
C664        H671   1.084       .  S
C665        C666   1.400       .  A
C666        H672   1.084       .  S
C673        C674   1.407       .  A
C673        C678   1.403       .  A
C674        C675   1.400       .  A
C674        H683   1.083       .  S
C675        C676   1.403       .  A
C675        H684   1.083       .  S
C676        C682   1.407       .  A
C676        C677   1.414       .  A
C677        C679   1.398       .  A
C677        C678   1.399       .  A
C678        H685   1.084       .  S
C679        C680   1.391       .  A
C679        H686   1.083       .  S
C680        C681   1.406       .  A
C680        H687   1.083       .  S
C681        C682   1.406       .  A
C682        H688   1.084       .  S
C689        C690   1.403       .  A
C689        C694   1.413       .  A
C690        C691   1.396       .  A
C690        H699   1.083       .  S
C691        C692   1.402       .  A
C691        H700   1.085       .  S
C692        C698   1.404       .  A
C692        C693   1.412       .  A
C693        C695   1.409       .  A
C693        C694   1.415       .  A
C694        H701   1.085       .  S
C695        C696   1.408       .  A
C695        H702   1.084       .  S
C696        C697   1.406       .  A
C696        H703   1.082   1_554  S
C697        C698   1.409       .  A
C698        H704   1.086       .  S
C705        C706   1.405       .  A
C705        C710   1.405       .  A
C706        C707   1.389       .  A
C706        H715   1.084       .  S
C707        C708   1.397       .  A
C707        H716   1.083       .  S
C708        C714   1.396       .  A
C708        C709   1.415       .  A
C709        C711   1.404       .  A
C709        C710   1.407       .  A
C710        H717   1.084       .  S
C711        C712   1.401       .  A
C711        H718   1.083       .  S
C712        C713   1.406       .  A
C712        H719   1.084       .  S
C713        C714   1.400       .  A
C714        H720   1.084       .  S
C721        C722   1.404       .  A
C721        C726   1.399       .  A
C722        C723   1.399       .  A
C722        H731   1.084       .  S
C723        C724   1.403       .  A
C723        H732   1.082       .  S
C724        C730   1.406       .  A
C724        C725   1.417       .  A
C725        C727   1.399       .  A
C725        C726   1.401       .  A
C726        H733   1.083       .  S
C727        C728   1.393       .  A
C727        H734   1.082       .  S
C728        C729   1.405       .  A
C728        H735   1.084       .  S
C729        C730   1.403       .  A
C730        H736   1.083       .  S
C737        C738   1.408       .  A
C737        C742   1.407       .  A
C738        C739   1.405       .  A
C738        H747   1.082       .  S
C739        C740   1.406       .  A
C739        H748   1.084       .  S
C740        C746   1.415       .  A
C740        C741   1.414       .  A
C741        C743   1.399       .  A
C741        C742   1.405       .  A
C742        H749   1.085       .  S
C743        C744   1.394       .  A
C743        H750   1.085       .  S
C744        C745   1.408       .  A
C744        H751   1.083       .  S
C745        C746   1.412       .  A
C746        H752   1.084       .  S
C753        C754   1.404       .  A
C753        C758   1.409       .  A
C754        C755   1.397       .  A
C754        H763   1.083       .  S
C755        C756   1.403       .  A
C755        H764   1.083       .  S
C756        C762   1.401   1_545  A
C756        C757   1.412       .  A
C757        C759   1.405       .  A
C757        C758   1.404       .  A
C758        H765   1.084       .  S
C759        C760   1.401   1_545  A
C759        H766   1.083       .  S
C760        C761   1.405       .  A
C760        H767   1.083       .  S
C761        C762   1.409       .  A
C762        H768   1.084       .  S
C769        C770   1.404       .  A
C769        C774   1.405       .  A
C770        C771   1.405       .  A
C770        H779   1.083       .  S
C771        C772   1.407       .  A
C771        H780   1.084       .  S
C772        C778   1.410       .  A
C772        C773   1.413       .  A
C773        C775   1.400       .  A
C773        C774   1.398       .  A
C774        H781   1.085       .  S
C775        C776   1.393       .  A
C775        H782   1.084       .  S
C776        C777   1.403       .  A
C776        H783   1.084       .  S
C777        C778   1.410       .  A
C778        H784   1.085       .  S
C785        C786   1.406       .  A
C785        C790   1.407       .  A
C786        C787   1.397       .  A
C786        H795   1.083       .  S
C787        C788   1.401   1_565  A
C787        H796   1.084   1_565  S
C788        C794   1.406       .  A
C788        C789   1.415       .  A
C789        C791   1.401       .  A
C789        C790   1.406   1_545  A
C790        H797   1.084       .  S
C791        C792   1.397       .  A
C791        H798   1.084       .  S
C792        C793   1.407       .  A
C792        H799   1.083       .  S
C793        C794   1.405       .  A
C794        H800   1.085       .  S
C801        C802   1.403       .  A
C801        C806   1.402       .  A
C802        C803   1.403       .  A
C802        H811   1.083       .  S
C803        C804   1.407       .  A
C803        H812   1.083       .  S
C804        C810   1.409       .  A
C804        C805   1.415       .  A
C805        C807   1.399       .  A
C805        C806   1.399       .  A
C806        H813   1.085       .  S
C807        C808   1.392       .  A
C807        H814   1.084       .  S
C808        C809   1.403       .  A
C808        H815   1.084       .  S
C809        C810   1.408       .  A
C810        H816   1.084       .  S
C817        C818   1.404       .  A
C817        C822   1.408       .  A
C818        C819   1.394       .  A
C818        H827   1.083       .  S
C819        C820   1.400       .  A
C819        H828   1.084       .  S
C820        C826   1.400       .  A
C820        C821   1.414       .  A
C821        C823   1.406       .  A
C821        C822   1.408       .  A
C822        H829   1.085       .  S
C823        C824   1.403       .  A
C823        H830   1.084       .  S
C824        C825   1.404       .  A
C824        H831   1.083       .  S
C825        C826   1.403       .  A
C826        H832   1.085       .  S
C833        C834   1.406       .  A
C833        C838   1.406       .  A
C834        C835   1.396       .  A
C834        H843   1.084       .  S
C835        C836   1.401       .  A
C835        H844   1.083       .  S
C836        C842   1.404       .  A
C836        C837   1.414       .  A
C837        C839   1.402       .  A
C837        C838   1.405       .  A
C838        H845   1.084       .  S
C839        C840   1.398       .  A
C839        H846   1.083       .  S
C840        C841   1.406       .  A
C840        H847   1.084       .  S
C841        C842   1.406       .  A
C842        H848   1.084       .  S
C849        C850   1.408       .  A
C849        C854   1.403       .  A
C850        C851   1.402       .  A
C850        H859   1.083       .  S
C851        C852   1.405       .  A
C851        H860   1.083       .  S
C852        C858   1.412       .  A
C852        C853   1.415       .  A
C853        C855   1.399       .  A
C853        C854   1.403       .  A
C854        H861   1.085       .  S
C855        C856   1.393       .  A
C855        H862   1.084       .  S
C856        C857   1.407       .  A
C856        H863   1.084       .  S
C857        C858   1.410       .  A
C858        H864   1.084       .  S
C865        C866   1.404       .  A
C865        C870   1.401       .  A
C866        C867   1.400       .  A
C866        H875   1.084       .  S
C867        C868   1.405       .  A
C867        H876   1.082       .  S
C868        C874   1.402   1_556  A
C868        C869   1.414   1_556  A
C869        C871   1.399       .  A
C869        C870   1.391   1_554  A
C870        H877   1.083   1_556  S
C871        C872   1.388       .  A
C871        H878   1.082       .  S
C872        C873   1.401       .  A
C872        H879   1.085       .  S
C873        C874   1.403       .  A
C874        H880   1.083   1_554  S
C881        C882   1.409       .  A
C881        C886   1.405       .  A
C882        C883   1.404       .  A
C882        H891   1.082       .  S
C883        C884   1.404       .  A
C883        H892   1.085       .  S
C884        C890   1.413       .  A
C884        C885   1.414       .  A
C885        C887   1.397       .  A
C885        C886   1.403       .  A
C886        H893   1.087       .  S
C887        C888   1.391       .  A
C887        H894   1.086       .  S
C888        C889   1.409       .  A
C888        H895   1.082       .  S
C889        C890   1.410       .  A
C890        H896   1.085       .  S
C897        C898   1.408       .  A
C897        C902   1.408       .  A
C898        C899   1.407       .  A
C898        H907   1.083       .  S
C899        C900   1.407       .  A
C899        H908   1.083       .  S
C900        C906   1.414       .  A
C900        C901   1.412       .  A
C901        C903   1.399       .  A
C901        C902   1.401       .  A
C902        H909   1.085       .  S
C903        C904   1.393       .  A
C903        H910   1.084       .  S
C904        C905   1.408       .  A
C904        H911   1.083       .  S
C905        C906   1.413       .  A
C906        H912   1.084       .  S
C913        C914   1.406       .  A
C913        C918   1.409       .  A
C914        C915   1.390       .  A
C914        H923   1.084       .  S
C915        C916   1.397       .  A
C915        H924   1.084       .  S
C916        C922   1.400       .  A
C916        C917   1.415       .  A
C917        C919   1.406       .  A
C917        C918   1.415       .  A
C918        H925   1.084       .  S
C919        C920   1.405       .  A
C919        H926   1.084       .  S
C920        C921   1.406       .  A
C920        H927   1.083       .  S
C921        C922   1.404       .  A
C922        H928   1.085       .  S
C929        C930   1.408       .  A
C929        C934   1.410       .  A
C930        C931   1.404       .  A
C930        H939   1.082       .  S
C931        C932   1.405       .  A
C931        H940   1.085       .  S
C932        C938   1.416       .  A
C932        C933   1.414       .  A
C933        C935   1.401       .  A
C933        C934   1.411       .  A
C934        H941   1.086       .  S
C935        C936   1.399       .  A
C935        H942   1.085       .  S
C936        C937   1.409       .  A
C936        H943   1.082       .  S
C937        C938   1.412       .  A
C938        H944   1.085       .  S
C945        C946   1.402       .  A
C945        C950   1.405       .  A
C946        C947   1.401       .  A
C946        H955   1.084       .  S
C947        C948   1.406       .  A
C947        H956   1.081       .  S
C948        C954   1.405       .  A
C948        C949   1.413       .  A
C949        C951   1.403       .  A
C949        C950   1.400       .  A
C950        H957   1.084       .  S
C951        C952   1.397       .  A
C951        H958   1.083       .  S
C952        C953   1.403       .  A
C952        H959   1.084       .  S
C953        C954   1.408       .  A
C954        H960   1.083       .  S
C961        C962   1.407       .  A
C961        C966   1.404       .  A
C962        C963   1.391       .  A
C962        H971   1.083       .  S
C963        C964   1.397       .  A
C963        H972   1.084       .  S
C964        C970   1.397       .  A
C964        C965   1.416       .  A
C965        C967   1.403       .  A
C965        C966   1.405       .  A
C966        H973   1.084       .  S
C967        C968   1.398       .  A
C967        H974   1.083       .  S
C968        C969   1.404       .  A
C968        H975   1.083       .  S
C969        C970   1.398       .  A
C970        H976   1.085       .  S
C977        C978   1.407       .  A
C977        C982   1.405   1_556  A
C978        C979   1.399       .  A
C978        H987   1.083       .  S
C979        C980   1.402       .  A
C979        H988   1.084       .  S
C980        C986   1.411   1_556  A
C980        C981   1.416   1_556  A
C981        C983   1.401       .  A
C981        C982   1.410       .  A
C982        H989   1.084       .  S
C983        C984   1.399       .  A
C983        H990   1.084       .  S
C984        C985   1.409       .  A
C984        H991   1.083       .  S
C985        C986   1.407       .  A
C986        H992   1.084   1_554  S
C993        C994   1.406       .  A
C993        C998   1.401       .  A
C994        C995   1.395       .  A
C994       H1003   1.083       .  S
C995        C996   1.401   1_565  A
C995       H1004   1.082       .  S
C996       C1002   1.400       .  A
C996        C997   1.415   1_545  A
C997        C999   1.398   1_565  A
C997        C998   1.396       .  A
C998       H1005   1.084       .  S
C999       C1000   1.391       .  A
C999       H1006   1.083   1_545  S
C1000      C1001   1.406       .  A
C1000      H1007   1.084       .  S
C1001      C1002   1.403       .  A
C1002      H1008   1.083       .  S
C1009      C1010   1.403       .  A
C1009      C1014   1.408       .  A
C1010      C1011   1.395       .  A
C1010      H1019   1.083       .  S
C1011      C1012   1.403       .  A
C1011      H1020   1.084       .  S
C1012      C1018   1.398       .  A
C1012      C1013   1.411       .  A
C1013      C1015   1.405       .  A
C1013      C1014   1.404       .  A
C1014      H1021   1.085       .  S
C1015      C1016   1.402       .  A
C1015      H1022   1.084       .  S
C1016      C1017   1.404       .  A
C1016      H1023   1.083       .  S
C1017      C1018   1.410       .  A
C1018      H1024   1.084       .  S
C1025      C1026   1.406       .  A
C1025      C1030   1.405       .  A
C1026      C1027   1.399       .  A
C1026      H1035   1.084       .  S
C1027      C1028   1.402       .  A
C1027      H1036   1.083       .  S
C1028      C1034   1.411       .  A
C1028      C1029   1.417       .  A
C1029      C1031   1.400       .  A
C1029      C1030   1.410       .  A
C1030      H1037   1.084       .  S
C1031      C1032   1.398       .  A
C1031      H1038   1.082       .  S
C1032      C1033   1.409       .  A
C1032      H1039   1.084       .  S
C1033      C1034   1.405       .  A
C1034      H1040   1.084       .  S
C1041      C1042   1.403       .  A
C1041      C1046   1.408       .  A
C1042      C1043   1.399       .  A
C1042      H1051   1.084       .  S
C1043      C1044   1.404       .  A
C1043      H1052   1.083       .  S
C1044      C1050   1.406       .  A
C1044      C1045   1.414       .  A
C1045      C1047   1.405       .  A
C1045      C1046   1.408       .  A
C1046      H1053   1.084       .  S
C1047      C1048   1.401       .  A
C1047      H1054   1.083       .  S
C1048      C1049   1.404       .  A
C1048      H1055   1.083       .  S
C1049      C1050   1.406       .  A
C1050      H1056   1.085       .  S
C1057      C1058   1.404       .  A
C1057      C1062   1.414       .  A
C1058      C1059   1.399       .  A
C1058      H1067   1.083       .  S
C1059      C1060   1.404       .  A
C1059      H1068   1.084       .  S
C1060      C1066   1.403   1_545  A
C1060      C1061   1.410       .  A
C1061      C1063   1.407       .  A
C1061      C1062   1.407       .  A
C1062      H1069   1.084       .  S
C1063      C1064   1.404   1_545  A
C1063      H1070   1.084       .  S
C1064      C1065   1.406       .  A
C1064      H1071   1.082       .  S
C1065      C1066   1.412       .  A
C1066      H1072   1.085       .  S
C1073      C1074   1.407       .  A
C1073      C1078   1.404       .  A
C1074      C1075   1.405       .  A
C1074      H1083   1.083       .  S
C1075      C1076   1.406       .  A
C1075      H1084   1.084       .  S
C1076      C1082   1.414       .  A
C1076      C1077   1.415       .  A
C1077      C1079   1.397       .  A
C1077      C1078   1.402       .  A
C1078      H1085   1.086       .  S
C1079      C1080   1.391       .  A
C1079      H1086   1.085       .  S
C1080      C1081   1.407       .  A
C1080      H1087   1.083       .  S
C1081      C1082   1.409       .  A
C1082      H1088   1.085       .  S
C1089      C1090   1.404       .  A
C1089      C1094   1.409       .  A
C1090      C1091   1.394       .  A
C1090      H1099   1.084       .  S
C1091      C1092   1.401       .  A
C1091      H1100   1.083       .  S
C1092      C1098   1.399       .  A
C1092      C1093   1.413       .  A
C1093      C1095   1.407       .  A
C1093      C1094   1.407       .  A
C1094      H1101   1.084       .  S
C1095      C1096   1.404       .  A
C1095      H1102   1.083       .  S
C1096      C1097   1.403       .  A
C1096      H1103   1.083       .  S
C1097      C1098   1.404       .  A
C1098      H1104   1.085       .  S
C1105      C1106   1.403       .  A
C1105      C1110   1.406       .  A
C1106      C1107   1.393       .  A
C1106      H1115   1.083       .  S
C1107      C1108   1.401       .  A
C1107      H1116   1.084       .  S
C1108      C1114   1.393       .  A
C1108      C1109   1.411       .  A
C1109      C1111   1.402       .  A
C1109      C1110   1.395       .  A
C1110      H1117   1.084       .  S
C1111      C1112   1.395       .  A
C1111      H1118   1.084       .  S
C1112      C1113   1.403       .  A
C1112      H1119   1.083       .  S
C1113      C1114   1.406       .  A
C1114      H1120   1.085       .  S
