geometry optimzed in LAMMPS
_audit_creation_date              2020-12-01 
_audit_creation_method            'lammps2cif' 
_symmetry_space_group_name_H-M    'P1' 
_symmetry_Int_Tables_number       1 
_symmetry_cell_setting            triclinic 
loop_ 
_symmetry_equiv_pos_as_xyz 
  x,y,z 
_cell_length_a                    29.0657907 
_cell_length_b                    28.76145322345661 
_cell_length_c                    45.169127316555944 
_cell_angle_alpha                 90.16209014334954 
_cell_angle_beta                  89.93194023826018 
_cell_angle_gamma                 90.09892966101457 
loop_ 
_atom_site_label 
_atom_site_type_symbol 
_atom_site_fract_x 
_atom_site_fract_y 
_atom_site_fract_z 
_atom_site_charge 
Fe1        Fe  0.12386021  0.01458477  0.65687843     1.65800
Fe2        Fe  0.04140345  0.09764692  0.65752496     1.73200
Fe3        Fe  0.08310075  0.05432871  0.72210297     1.54400
O4          O  0.08573992  0.98284025  0.72151016    -0.82000
O5          O  0.04407287  0.14906387  0.68884498    -0.80300
O6          O  0.08966244  0.95732801  0.67475720    -0.84500
O7          O  0.17247923  0.01193516  0.68999984    -0.79300
O8          O  0.01292862  0.04886880  0.72238473    -0.81100
O9          O  0.09959822  0.12718775  0.63767226    -0.83800
C10         C  0.18212557  0.03385571  0.71354306     0.96900
C11         C  0.07938146  0.95144088  0.70203414     1.04400
O12         O  0.08265259  0.05594366  0.67865914    -1.12800
O13         O  0.02895668  0.05651147  0.62099338    -0.75200
O14         O  0.08672174  0.00748504  0.61806086    -0.78700
O15         O  0.15319056  0.05977211  0.72622157    -0.79400
C16         C  0.05140742  0.02603797  0.60700794     0.95800
O17         O  0.15613563  0.07335315  0.63999246    -0.77400
O18         O  0.98370219  0.06821287  0.67820329    -0.82600
C19         C  0.06009561  0.15621661  0.71443327     0.98500
C20         C  0.97932817  0.05235338  0.70452717     1.04400
O21         O  0.08000299  0.12481265  0.72898950    -0.78200
C22         C  0.14174545  0.11458775  0.63442478     1.02700
Fe23       Fe  0.39491194  0.46372080  0.65436251     1.65800
Fe24       Fe  0.47927352  0.38224380  0.65373575     1.73200
Fe25       Fe  0.43752348  0.42336584  0.71914785     1.54400
O26         O  0.43620992  0.49491844  0.71938555    -0.82000
O27         O  0.48251601  0.33233593  0.68599127    -0.80300
O28         O  0.42447146  0.52272270  0.67380204    -0.84500
O29         O  0.34518334  0.46265860  0.68663911    -0.79300
O30         O  0.50784392  0.42759883  0.71842302    -0.81100
O31         O  0.42173218  0.34945293  0.63572023    -0.83800
C32         C  0.33686850  0.44405954  0.71140590     0.96900
C33         C  0.43597084  0.52825996  0.70091020     1.04400
O34         O  0.43716340  0.42292318  0.67562233    -1.12800
O35         O  0.48761893  0.42166107  0.61590762    -0.75200
O36         O  0.43372210  0.47510699  0.61687928    -0.78700
O37         O  0.36686511  0.42031810  0.72488743    -0.79400
C38         C  0.46686686  0.45525606  0.60403430     0.95800
O39         O  0.36583170  0.40410574  0.63568713    -0.77400
O40         O  0.53589959  0.41515588  0.67279978    -0.82600
C41         C  0.46638618  0.32348282  0.71133884     0.98500
C42         C  0.54077333  0.42761992  0.69983010     1.04400
O43         O  0.44088588  0.35205303  0.72498982    -0.78200
C44         C  0.38002589  0.36235171  0.63128514     1.02700
Fe45       Fe  0.52552960  0.61541879  0.34432268     1.65800
Fe46       Fe  0.61193771  0.53603432  0.34299611     1.73200
Fe47       Fe  0.56362313  0.57018521  0.27898792     1.54400
O48         O  0.49378836  0.56012149  0.28120347    -0.82000
O49         O  0.65710975  0.53157011  0.30765798    -0.80300
O50         O  0.46689614  0.58521226  0.32492743    -0.84500
O51         O  0.52590118  0.66663900  0.31292211    -0.79300
O52         O  0.57093718  0.49883216  0.28087831    -0.81100
O53         O  0.64309040  0.59682392  0.35761765    -0.83800
C54         C  0.53720285  0.67240072  0.28614750     0.96900
C55         C  0.46117523  0.56553373  0.29971650     1.04400
O56         O  0.56665629  0.57426200  0.32223500    -1.12800
O57         O  0.57792028  0.52973282  0.38285118    -0.75200
O58         O  0.51554531  0.57277986  0.38057553    -0.78700
O59         O  0.55497728  0.64019913  0.27088562    -0.79400
C60         C  0.54083405  0.54417820  0.39408051     0.95800
O61         O  0.58387749  0.64694960  0.36326193    -0.77400
O62         O  0.57976311  0.47611656  0.32792058    -0.82600
C63         C  0.66310451  0.55204964  0.28320947     0.98500
C64         C  0.57070009  0.46759140  0.30082587     1.04400
O65         O  0.63343815  0.57951612  0.27275640    -0.78200
C66         C  0.62690084  0.63678791  0.36472463     1.02700
Fe67       Fe  0.96804502  0.89332909  0.34470570     1.65800
Fe68       Fe  0.88917108  0.98137420  0.34791238     1.73200
Fe69       Fe  0.93132829  0.94426096  0.28133314     1.54400
O70         O  0.00220580  0.94008832  0.28114407    -0.82000
O71         O  0.83651982  0.98141755  0.31733221    -0.80300
O72         O  0.02793432  0.92134228  0.32619490    -0.84500
O73         O  0.96312074  0.84498596  0.31103842    -0.79300
O74         O  0.93824895  0.01448229  0.28414041    -0.81100
O75         O  0.85821389  0.92334885  0.36698559    -0.83800
C76         C  0.94427706  0.84096786  0.28589306     0.96900
C77         C  0.03470238  0.93529677  0.29974267     1.04400
O78         O  0.92941719  0.93977663  0.32477188    -1.12800
O79         O  0.93314666  0.98992921  0.38351142    -0.75200
O80         O  0.98148195  0.93089447  0.38267102    -0.78700
O81         O  0.92480074  0.87455453  0.27318821    -0.79400
C82         C  0.96548432  0.96682311  0.39502012     0.95800
O83         O  0.90891335  0.86447709  0.36327194    -0.77400
O84         O  0.91800989  0.04091058  0.32887547    -0.82600
C85         C  0.82975787  0.96770188  0.29103105     0.98500
C86         C  0.93468295  0.04700796  0.30300529     1.04400
O87         O  0.86132888  0.94953807  0.27561285    -0.78200
C88         C  0.86895972  0.88041333  0.36962370     1.02700
Fe89       Fe  0.89263235  0.51485237  0.84324166     1.65800
Fe90       Fe  0.97506736  0.59929135  0.84428038     1.73200
Fe91       Fe  0.93845164  0.55327458  0.77888232     1.54400
O92         O  0.93647201  0.48213998  0.77997264    -0.82000
O93         O  0.97130888  0.65175627  0.81333484    -0.80300
O94         O  0.92551559  0.45634866  0.82606660    -0.84500
O95         O  0.84499343  0.51300466  0.80974440    -0.79300
O96         O  0.00870281  0.54927484  0.78014572    -0.81100
O97         O  0.91612269  0.62696766  0.86413579    -0.83800
C98         C  0.83783882  0.53355266  0.78548989     0.96900
C99         C  0.93721722  0.44988113  0.79913343     1.04400
O100        O  0.93560611  0.55609937  0.82225414    -1.12800
O101        O  0.98748149  0.55633960  0.87992360    -0.75200
O102        O  0.92919021  0.50739515  0.88180002    -0.78700
O103        O  0.86854760  0.55726447  0.77271118    -0.79400
C104        C  0.96487317  0.52498330  0.89304266     0.95800
O105        O  0.85986354  0.57323595  0.86011775    -0.77400
O106        O  0.03489425  0.57311462  0.82428560    -0.82600
C107        C  0.95843628  0.65658947  0.78676402     0.98500
C108        C  0.04129092  0.55647679  0.79832547     1.04400
O109        O  0.94186080  0.62349836  0.77175671    -0.78200
C110        C  0.87397951  0.61418444  0.86667036     1.02700
Fe111      Fe  0.62466390  0.96285046  0.84635223     1.65800
Fe112      Fe  0.53977892  0.88096595  0.84561583     1.73200
Fe113      Fe  0.57924834  0.92490357  0.78081391     1.54400
O114        O  0.57761024  0.99612794  0.78140627    -0.82000
O115        O  0.53776682  0.83144418  0.81254369    -0.80300
O116        O  0.60103456  0.02324720  0.82541440    -0.84500
O117        O  0.67660658  0.95633650  0.81569918    -0.79300
O118        O  0.50852766  0.92496161  0.78182570    -0.81100
O119        O  0.59650356  0.84772581  0.86305562    -0.83800
C120        C  0.68203732  0.94222480  0.78936673     0.96900
C121        C  0.58556771  0.02944041  0.79923483     1.04400
O122        O  0.58141233  0.92317136  0.82433826    -1.12800
O123        O  0.53243035  0.91995686  0.88365113    -0.75200
O124        O  0.58204204  0.97789518  0.88186742    -0.78700
O125        O  0.64926945  0.92596940  0.77411252    -0.79400
C126        C  0.55019808  0.95597773  0.89488087     0.95800
O127        O  0.65055858  0.90357972  0.86715690    -0.77400
O128        O  0.48252756  0.91372992  0.82792553    -0.82600
C129        C  0.55680516  0.82344497  0.78783466     0.98500
C130        C  0.47629606  0.92478955  0.80092249     1.04400
O131        O  0.58075232  0.85380706  0.77472786    -0.78200
C132        C  0.63706599  0.86131336  0.86979077     1.02700
Fe133      Fe  0.03012642  0.39586919  0.15719960     1.65800
Fe134      Fe  0.10872430  0.48302498  0.15687431     1.73200
Fe135      Fe  0.05834836  0.45348229  0.22036977     1.54400
O136        O  0.99047748  0.46834501  0.21344239    -0.82000
O137        O  0.15265837  0.48869143  0.19336428    -0.80300
O138        O  0.96867170  0.41932253  0.17709654    -0.84500
O139        O  0.03983434  0.34686366  0.18929942    -0.79300
O140        O  0.07439477  0.52248908  0.21649943    -0.81100
O141        O  0.14537068  0.42477306  0.14394780    -0.83800
C142        C  0.03719061  0.34848067  0.21718253     0.96900
C143        C  0.95989086  0.44990744  0.19703876     1.04400
O144        O  0.06584459  0.44294026  0.17793168    -1.12800
O145        O  0.07466789  0.48272045  0.11672775    -0.75200
O146        O  0.01446437  0.43622486  0.12091261    -0.78700
O147        O  0.04086517  0.38609955  0.23153500    -0.79400
C148        C  0.03859125  0.46445763  0.10612047     0.95800
O149        O  0.09036936  0.37052053  0.13725352    -0.77400
O150        O  0.07002621  0.54139174  0.16953368    -0.82600
C151        C  0.15819818  0.46640760  0.21746609     0.98500
C152        C  0.06141747  0.55020557  0.19659589     1.04400
O153        O  0.12685207  0.44087533  0.22852742    -0.78200
C154        C  0.13254108  0.38380155  0.13649992     1.02700
Fe155      Fe  0.47171627  0.11454620  0.15323266     1.65800
Fe156      Fe  0.38532324  0.03498046  0.15253791     1.73200
Fe157      Fe  0.42995680  0.07179502  0.21802832     1.54400
O158        O  0.50052309  0.06808307  0.21753323    -0.82000
O159        O  0.33675469  0.03383528  0.18573862    -0.80300
O160        O  0.52909112  0.08262343  0.17246012    -0.84500
O161        O  0.47304267  0.16420585  0.18565209    -0.79300
O162        O  0.42849643  0.00042326  0.21610730    -0.81100
O163        O  0.35602483  0.09562534  0.13607971    -0.83800
C164        C  0.45678027  0.17256044  0.21105816     0.96900
C165        C  0.53396469  0.06989784  0.19938487     1.04400
O166        O  0.42903130  0.07386133  0.17449951    -1.12800
O167        O  0.42278954  0.02561401  0.11397108    -0.75200
O168        O  0.48119755  0.07412763  0.11595617    -0.78700
O169        O  0.43274347  0.14294918  0.22487951    -0.79400
C170        C  0.45868141  0.04288909  0.10269270     0.95800
O171        O  0.41435586  0.14764555  0.13488955    -0.77400
O172        O  0.41491944  0.97507699  0.16986901    -0.82600
C173        C  0.32910557  0.05076144  0.21115814     0.98500
C174        C  0.42649564  0.96812895  0.19677694     1.04400
O175        O  0.35938551  0.07423784  0.22467744    -0.78200
C176        C  0.37179527  0.13668014  0.13149366     1.02700
C177        C  0.17863131  0.22247326  0.11138530    -0.18100
C178        C  0.21232004  0.18771519  0.11057096    -0.20300
C179        C  0.25870737  0.19862950  0.11589006     0.20400
C180        C  0.27141684  0.24532404  0.12104436    -0.03200
C181        C  0.23736132  0.28042617  0.12191683    -0.06300
C182        C  0.19065358  0.26879769  0.11756472     0.20700
C183        C  0.24988530  0.32679501  0.12827897     0.18800
C184        C  0.29639706  0.33793889  0.13283070    -0.17700
C185        C  0.33007177  0.30322890  0.13194148    -0.20000
C186        C  0.31788742  0.25672950  0.12649796     0.20300
C187        C  0.35104758  0.22127434  0.12771011    -0.33000
C188        C  0.33841025  0.17424230  0.12411155     0.01000
C189        C  0.29220978  0.16345823  0.11740399    -0.24300
C190        C  0.15667288  0.30325904  0.12065456    -0.28900
C191        C  0.16865195  0.34928669  0.12828761     0.06700
C192        C  0.21560727  0.36088003  0.13119614    -0.27600
H193        H  0.14296330  0.21289782  0.10785328     0.11400
H194        H  0.20193453  0.15211020  0.10644355     0.12500
H195        H  0.30662996  0.37335832  0.13772583     0.11600
H196        H  0.36559822  0.31263963  0.13617470     0.10800
H197        H  0.38631971  0.23021659  0.13311338     0.16200
H198        H  0.28189895  0.12750939  0.11455767     0.12100
H199        H  0.12075210  0.29372398  0.11828596     0.15000
H200        H  0.22551949  0.39603819  0.13708309     0.14800
C201        C  0.43773603  0.94653756  0.01200356    -0.18100
C202        C  0.44954445  0.93563470  0.98271241    -0.20300
C203        C  0.48576809  0.95903951  0.96847671     0.20400
C204        C  0.51054492  0.99349550  0.98401967    -0.03200
C205        C  0.49877588  0.00430452  0.01369366    -0.06300
C206        C  0.46199811  0.98091524  0.02769649     0.20700
C207        C  0.52363652  0.03868520  0.02924932     0.18800
C208        C  0.56018200  0.06172539  0.01511792    -0.17700
C209        C  0.57178498  0.05105080  0.98577201    -0.20000
C210        C  0.54712598  0.01712402  0.96996351     0.20300
C211        C  0.55876009  0.00605158  0.94051878    -0.33000
C212        C  0.53462592  0.97126221  0.92487385     0.01000
C213        C  0.49789306  0.94818619  0.93910790    -0.24300
C214        C  0.44979908  0.99269906  0.05696181    -0.28900
C215        C  0.47394195  0.02756354  0.07258653     0.06700
C216        C  0.51123317  0.04993264  0.05850913    -0.27600
H217        H  0.40944227  0.92808591  0.02237847     0.11400
H218        H  0.43027066  0.90896186  0.97117219     0.12500
H219        H  0.57967959  0.08816099  0.02672352     0.11600
H220        H  0.60013690  0.06943310  0.97541564     0.10800
H221        H  0.58741439  0.02379877  0.93004705     0.16200
H222        H  0.47912058  0.92117564  0.92751666     0.12100
H223        H  0.42099352  0.97515326  0.06739875     0.15000
H224        H  0.53011047  0.07688618  0.07008205     0.14800
C225        C  0.93984140  0.43824600  0.01785033    -0.18100
C226        C  0.93088918  0.44484924  0.98767374    -0.20300
C227        C  0.96001760  0.47275002  0.97034109     0.20400
C228        C  0.99884824  0.49375749  0.98351003    -0.03200
C229        C  0.00773359  0.48733731  0.01399041    -0.06300
C230        C  0.97803399  0.45958653  0.03128155     0.20700
C231        C  0.04625551  0.50892292  0.02714981     0.18800
C232        C  0.07579505  0.53616779  0.00975947    -0.17700
C233        C  0.06700783  0.54255108  0.97962913    -0.20000
C234        C  0.02846580  0.52180172  0.96635442     0.20300
C235        C  0.01847725  0.52975153  0.93642175    -0.33000
C236        C  0.97893248  0.51042693  0.92328307     0.01000
C237        C  0.95041090  0.48105555  0.94031694    -0.24300
C238        C  0.98725571  0.45340080  0.06159998    -0.28900
C239        C  0.02585969  0.47467963  0.07489494     0.06700
C240        C  0.05488396  0.50264985  0.05740057    -0.27600
H241        H  0.91677745  0.41668840  0.03070685     0.11400
H242        H  0.90088645  0.42836680  0.97792710     0.12500
H243        H  0.10570829  0.55279489  0.01951569     0.11600
H244        H  0.09009527  0.56408766  0.96678008     0.10800
H245        H  0.04073137  0.55231022  0.92364756     0.16200
H246        H  0.91972089  0.46596391  0.93053790     0.12100
H247        H  0.96483850  0.43143380  0.07467109     0.15000
H248        H  0.08497821  0.51891068  0.06718061     0.14800
C249        C  0.79861168  0.81360533  0.88339441    -0.18100
C250        C  0.83200615  0.77865033  0.88275399    -0.20300
C251        C  0.81905974  0.73163852  0.88167488     0.20400
C252        C  0.77198383  0.71965737  0.88227468    -0.03200
C253        C  0.73823172  0.75497830  0.88302188    -0.06300
C254        C  0.75165938  0.80216301  0.88302683     0.20700
C255        C  0.69113870  0.74308377  0.88241457     0.18800
C256        C  0.67818854  0.69603275  0.88212285    -0.17700
C257        C  0.71160763  0.66105609  0.88129928    -0.20000
C258        C  0.75859031  0.67251754  0.88083498     0.20300
C259        C  0.79227023  0.63783615  0.87764343    -0.33000
C260        C  0.83930600  0.64962026  0.87566540     0.01000
C261        C  0.85232215  0.69662102  0.87865458    -0.24300
C262        C  0.71807482  0.83705112  0.88112726    -0.28900
C263        C  0.67111392  0.82547171  0.87875457     0.06700
C264        C  0.65793131  0.77834646  0.88055624    -0.27600
H265        H  0.80953078  0.84963413  0.88343443     0.11400
H266        H  0.86802875  0.78845721  0.88234404     0.12500
H267        H  0.64214919  0.68626998  0.88172170     0.11600
H268        H  0.70068265  0.62506370  0.88030566     0.10800
H269        H  0.78162175  0.60187618  0.87538148     0.16200
H270        H  0.88829950  0.70636066  0.87711572     0.12100
H271        H  0.72881761  0.87308318  0.87974145     0.15000
H272        H  0.62191649  0.76881061  0.87883640     0.14800
C273        C  0.04017907  0.17823786  0.21967443    -0.18100
C274        C  0.02547022  0.13624784  0.23175975    -0.20300
C275        C  0.99712627  0.13591098  0.25690052     0.20400
C276        C  0.98356263  0.17798027  0.27025839    -0.03200
C277        C  0.99881304  0.22044909  0.25820863    -0.06300
C278        C  0.02701053  0.22041429  0.23271300     0.20700
C279        C  0.98541811  0.26284353  0.27138012     0.18800
C280        C  0.95666014  0.26224534  0.29640347    -0.17700
C281        C  0.94129830  0.21999183  0.30829596    -0.20000
C282        C  0.95455391  0.17757638  0.29542123     0.20300
C283        C  0.93899327  0.13481349  0.30691953    -0.33000
C284        C  0.95213831  0.09284784  0.29330202     0.01000
C285        C  0.98176226  0.09399914  0.26860482    -0.24300
C286        C  0.04091954  0.26253145  0.22027553    -0.28900
C287        C  0.02740776  0.30489035  0.23300674     0.06700
C288        C  0.00025981  0.30494212  0.25884343    -0.27600
H289        H  0.06170112  0.17773352  0.20008998     0.11400
H290        H  0.03597605  0.10401201  0.22129512     0.12500
H291        H  0.94579496  0.29452116  0.30669214     0.11600
H292        H  0.91897231  0.22049707  0.32749917     0.10800
H293        H  0.91614810  0.13422701  0.32588230     0.16200
H294        H  0.99279584  0.06195835  0.25809296     0.12100
H295        H  0.06168206  0.26240321  0.20033050     0.15000
H296        H  0.98906833  0.33768381  0.26839866     0.14800
C297        C  0.98091502  0.75119425  0.19583571    -0.18100
C298        C  0.99944821  0.71074972  0.18316885    -0.20300
C299        C  0.00711645  0.67110309  0.20054455     0.20400
C300        C  0.99444219  0.67199846  0.23080184    -0.03200
C301        C  0.97597890  0.71267107  0.24356791    -0.06300
C302        C  0.96984884  0.75275339  0.22612259     0.20700
C303        C  0.96555762  0.71376009  0.27413551     0.18800
C304        C  0.97167102  0.67389775  0.29138358    -0.17700
C305        C  0.98945929  0.63356130  0.27870825    -0.20000
C306        C  0.00162559  0.63271619  0.24865489     0.20300
C307        C  0.02215662  0.59345147  0.23653085    -0.33000
C308        C  0.03696933  0.59248191  0.20680636     0.01000
C309        C  0.02832532  0.63107793  0.18859269    -0.24300
C310        C  0.95518227  0.79420923  0.23968270    -0.28900
C311        C  0.94799973  0.79599237  0.27050788     0.06700
C312        C  0.95156051  0.75531949  0.28732280    -0.27600
H313        H  0.97633075  0.78165444  0.18209120     0.11400
H314        H  0.00862829  0.71080020  0.15991613     0.12500
H315        H  0.96370367  0.67423593  0.31484426     0.11600
H316        H  0.99477399  0.60341014  0.29256349     0.10800
H317        H  0.02735574  0.56366678  0.25073760     0.16200
H318        H  0.03900798  0.63041409  0.16559682     0.12100
H319        H  0.95269239  0.82575228  0.22669170     0.15000
H320        H  0.94565053  0.75662799  0.31103869     0.14800
C321        C  0.18704465  0.01293185  0.31238429    -0.18100
C322        C  0.22696349  0.03195287  0.29959290    -0.20300
C323        C  0.23539809  0.02750869  0.26904341     0.20400
C324        C  0.20299498  0.00362371  0.25133728    -0.03200
C325        C  0.16306961  0.98404886  0.26424587    -0.06300
C326        C  0.15481516  0.98876808  0.29493252     0.20700
C327        C  0.13121803  0.96003603  0.24628085     0.18800
C328        C  0.13930610  0.95551054  0.21581436    -0.17700
C329        C  0.17857662  0.97493071  0.20309523    -0.20000
C330        C  0.21050143  0.99898513  0.22063780     0.20300
C331        C  0.25028304  0.01743883  0.20788936    -0.33000
C332        C  0.28399339  0.03968430  0.22523587     0.01000
C333        C  0.27590190  0.04541098  0.25588381    -0.24300
C334        C  0.11400164  0.97024548  0.30729369    -0.28900
C335        C  0.08147810  0.94762112  0.28909916     0.06700
C336        C  0.09109326  0.94188475  0.25880364    -0.27600
H337        H  0.18136879  0.01714844  0.33594159     0.11400
H338        H  0.25133223  0.05015714  0.31365901     0.12500
H339        H  0.11510426  0.93721005  0.20178573     0.11600
H340        H  0.18407348  0.97094726  0.17947900     0.10800
H341        H  0.25567192  0.01287460  0.18431292     0.16200
H342        H  0.30170650  0.06221709  0.26960268     0.12100
H343        H  0.10659140  0.97529156  0.33061377     0.15000
H344        H  0.06640736  0.92437306  0.24466621     0.14800
C345        C  0.73174556  0.98629016  0.20227783    -0.18100
C346        C  0.69151942  0.00324311  0.18905912    -0.20300
C347        C  0.65585630  0.02162569  0.20650463     0.20400
C348        C  0.66083022  0.02234770  0.23765053    -0.03200
C349        C  0.70128143  0.00512994  0.25096978    -0.06300
C350        C  0.73708537  0.98736763  0.23318245     0.20700
C351        C  0.70616959  0.00649178  0.28207034     0.18800
C352        C  0.67041858  0.02420608  0.29961592    -0.17700
C353        C  0.63042390  0.04117566  0.28646122    -0.20000
C354        C  0.62550390  0.04057107  0.25556352     0.20300
C355        C  0.58552747  0.05752033  0.24239711    -0.33000
C356        C  0.57946281  0.05619993  0.21144808     0.01000
C357        C  0.61515054  0.03878144  0.19349953    -0.24300
C358        C  0.77810880  0.97245581  0.24655430    -0.28900
C359        C  0.78401041  0.97574734  0.27746773     0.06700
C360        C  0.74726978  0.99158666  0.29507611    -0.27600
H361        H  0.75892111  0.97273414  0.18826930     0.11400
H362        H  0.68839920  0.00215677  0.16518483     0.12500
H363        H  0.67360543  0.02543985  0.32351084     0.11600
H364        H  0.60336036  0.05493832  0.30046668     0.10800
H365        H  0.55857451  0.07130910  0.25651969     0.16200
H366        H  0.61073701  0.03734963  0.16970806     0.12100
H367        H  0.80616585  0.96029409  0.23273961     0.15000
H368        H  0.75120541  0.99392452  0.31890492     0.14800
C369        C  0.70431386  0.83761945  0.37144094    -0.18100
C370        C  0.67016739  0.80322143  0.37045922    -0.20300
C371        C  0.68151302  0.75623188  0.37452923     0.20400
C372        C  0.72754559  0.74403328  0.38066825    -0.03200
C373        C  0.76204276  0.77879751  0.38171094    -0.06300
C374        C  0.75046572  0.82568550  0.37654606     0.20700
C375        C  0.80837571  0.76632359  0.38657185     0.18800
C376        C  0.81949025  0.71954668  0.39162345    -0.17700
C377        C  0.78538270  0.68515862  0.39058056    -0.20000
C378        C  0.73949888  0.69691353  0.38448898     0.20300
C379        C  0.70584509  0.66221521  0.38090155    -0.33000
C380        C  0.66019733  0.67382001  0.37348417     0.01000
C381        C  0.64809059  0.72113314  0.37127285    -0.24300
C382        C  0.78544521  0.85942866  0.37507574    -0.28900
C383        C  0.83211598  0.84685467  0.37805466     0.06700
C384        C  0.84302640  0.80037714  0.38480052    -0.27600
H385        H  0.69477696  0.87345775  0.36746419     0.11400
H386        H  0.63500064  0.81328477  0.36577861     0.12500
H387        H  0.85483724  0.70935060  0.39557479     0.11600
H388        H  0.79511884  0.64918690  0.39377473     0.14800
H389        H  0.71562944  0.62600824  0.38284728     0.16200
H390        H  0.61317793  0.73062965  0.36542159     0.12100
H391        H  0.77642998  0.89497406  0.36971358     0.15000
H392        H  0.87872678  0.79020679  0.38725832     0.14800
C393        C  0.44417113  0.86407584  0.28081332    -0.18100
C394        C  0.46273935  0.82453343  0.29383880    -0.20300
C395        C  0.48673640  0.79206034  0.27658801     0.20400
C396        C  0.49245853  0.79945611  0.24594796    -0.03200
C397        C  0.47393761  0.83967361  0.23278834    -0.06300
C398        C  0.44961218  0.87182950  0.25040752     0.20700
C399        C  0.47982151  0.84781273  0.20216821     0.18800
C400        C  0.50412375  0.81519953  0.18503972    -0.17700
C401        C  0.52197535  0.77483110  0.19806697    -0.20000
C402        C  0.51626056  0.76656058  0.22851047     0.20300
C403        C  0.53293895  0.72566972  0.24179112    -0.33000
C404        C  0.52623768  0.71772083  0.27230356     0.01000
C405        C  0.50407914  0.75180292  0.28950579    -0.24300
C406        C  0.43186540  0.91184144  0.23756085    -0.28900
C407        C  0.43880491  0.92135289  0.20740363     0.06700
C408        C  0.46209196  0.88883526  0.18953333    -0.27600
H409        H  0.42568695  0.88874243  0.29456838     0.11400
H410        H  0.45803945  0.81916667  0.31738785     0.12500
H411        H  0.50920935  0.82083270  0.16156896     0.11600
H412        H  0.54020800  0.75002456  0.18430218     0.10800
H413        H  0.54986047  0.69959926  0.22827702     0.16200
H414        H  0.49865207  0.74632855  0.31300017     0.12100
H415        H  0.41364086  0.93661570  0.25143049     0.15000
H416        H  0.46797049  0.89629343  0.16633953     0.14800
C417        C  0.56479305  0.35636564  0.21945471    -0.18100
C418        C  0.54594806  0.31699126  0.20612710    -0.20300
C419        C  0.51627618  0.28790893  0.22213593     0.20400
C420        C  0.50553454  0.29824948  0.25185814    -0.03200
C421        C  0.52442820  0.33824246  0.26530358    -0.06300
C422        C  0.55405341  0.36730722  0.24889271     0.20700
C423        C  0.51329425  0.34947512  0.29492340     0.18800
C424        C  0.48373199  0.32002064  0.31086657    -0.17700
C425        C  0.46545073  0.27988754  0.29760015    -0.20000
C426        C  0.47601128  0.26869893  0.26806914     0.20300
C427        C  0.45825941  0.22828995  0.25452159    -0.33000
C428        C  0.46947772  0.21758167  0.22492419     0.01000
C429        C  0.49784914  0.24825200  0.20888079    -0.24300
C430        C  0.57143961  0.40765076  0.26183540    -0.28900
C431        C  0.55914155  0.42026921  0.29081323     0.06700
C432        C  0.53092214  0.39059172  0.30763620    -0.27600
H433        H  0.58747266  0.37853957  0.20662137     0.11400
H434        H  0.55459741  0.30925706  0.18333016     0.12500
H435        H  0.47466686  0.32807687  0.33356502     0.11600
H436        H  0.44287051  0.25764313  0.31044351     0.10800
H437        H  0.43671978  0.20474754  0.26717966     0.16200
H438        H  0.50698047  0.24062891  0.18613558     0.12100
H439        H  0.59339781  0.43041401  0.24885627     0.15000
H440        H  0.52093544  0.40060278  0.32988202     0.14800
C441        C  0.81141948  0.59053772  0.23505603    -0.18100
C442        C  0.85312481  0.57568576  0.22276502    -0.20300
C443        C  0.86120244  0.52825135  0.21754785     0.20400
C444        C  0.82672885  0.49538967  0.22429971    -0.03200
C445        C  0.78497611  0.51028980  0.23718960    -0.06300
C446        C  0.77728847  0.55812581  0.24268921     0.20700
C447        C  0.75153805  0.47717074  0.24539996     0.18800
C448        C  0.75933273  0.42980437  0.23981117    -0.17700
C449        C  0.80045343  0.41508501  0.22670921    -0.20000
C450        C  0.83461444  0.44750788  0.21916727     0.20300
C451        C  0.87722652  0.43276392  0.20778534    -0.33000
C452        C  0.91230556  0.46526265  0.20241258     0.01000
C453        C  0.90379669  0.51290332  0.20683051    -0.24300
C454        C  0.73626842  0.57244931  0.25654784    -0.28900
C455        C  0.70391088  0.53924424  0.26575387     0.06700
C456        C  0.71146635  0.49189095  0.25981107    -0.27600
H457        H  0.80624174  0.62726624  0.23916153     0.11400
H458        H  0.87940363  0.60133226  0.21770411     0.12500
H459        H  0.73380525  0.40399355  0.24595575     0.11600
H460        H  0.80592445  0.37831446  0.22303775     0.10800
H461        H  0.88412923  0.39603228  0.20494869     0.16200
H462        H  0.93114287  0.53796142  0.20286132     0.12100
H463        H  0.73041464  0.60891260  0.26132162     0.15000
H464        H  0.68612605  0.46637034  0.26680999     0.14800
C465        C  0.24770289  0.54041018  0.29759501    -0.18100
C466        C  0.29015475  0.55551716  0.30886505    -0.20300
C467        C  0.33147429  0.54310352  0.29476483     0.20400
C468        C  0.32975440  0.51473116  0.26917158    -0.03200
C469        C  0.28698991  0.49971545  0.25770710    -0.06300
C470        C  0.24570332  0.51269130  0.27195380     0.20700
C471        C  0.28556497  0.47265502  0.23154834     0.18800
C472        C  0.32669767  0.45979253  0.21754857    -0.17700
C473        C  0.36895016  0.47414430  0.22910207    -0.20000
C474        C  0.37074375  0.50196772  0.25465123     0.20300
C475        C  0.41292389  0.51789968  0.26550116    -0.33000
C476        C  0.41535488  0.54722264  0.29055148     0.01000
C477        C  0.37435314  0.55914123  0.30538819    -0.24300
C478        C  0.20328858  0.49881248  0.25974322    -0.28900
C479        C  0.20193293  0.47310284  0.23321787     0.06700
C480        C  0.24305175  0.45998342  0.21933154    -0.27600
H481        H  0.21633982  0.55088337  0.30876770     0.11400
H482        H  0.29063844  0.57725555  0.32849636     0.12500
H483        H  0.32617168  0.43900238  0.19754678     0.11600
H484        H  0.40029153  0.46402759  0.21775611     0.10800
H485        H  0.44408703  0.50773662  0.25397676     0.16200
H486        H  0.37570417  0.58155609  0.32470858     0.12100
H487        H  0.17133142  0.50990403  0.26999842     0.15000
H488        H  0.24179618  0.44087135  0.19864728     0.14800
C489        C  0.57195849  0.44987121  0.48374679    -0.18100
C490        C  0.56272061  0.43861050  0.51333131    -0.20300
C491        C  0.52628148  0.46003069  0.52857535     0.20400
C492        C  0.49867731  0.49281416  0.51368725    -0.03200
C493        C  0.50784843  0.50397863  0.48373377    -0.06300
C494        C  0.54486615  0.48262806  0.46877174     0.20700
C495        C  0.48020709  0.53676302  0.46887427     0.18800
C496        C  0.44345035  0.55777905  0.48399100    -0.17700
C497        C  0.43440836  0.54675229  0.51360778    -0.20000
C498        C  0.46190277  0.51449788  0.52869889     0.20300
C499        C  0.45294056  0.50328642  0.55842258    -0.33000
C500        C  0.47991893  0.47025672  0.57351416     0.01000
C501        C  0.51674759  0.44893552  0.55831632    -0.24300
C502        C  0.55455146  0.49489106  0.43928469    -0.28900
C503        C  0.52773199  0.52829554  0.42437695     0.06700
C504        C  0.49016314  0.54854644  0.43934218    -0.27600
H505        H  0.60050554  0.43302548  0.47259174     0.11400
H506        H  0.58418267  0.41325674  0.52431777     0.12500
H507        H  0.42183608  0.58295185  0.47295902     0.11600
H508        H  0.40585344  0.56359424  0.52475446     0.10800
H509        H  0.42415528  0.51966876  0.56961015     0.16200
H510        H  0.53759321  0.42319462  0.56945654     0.12100
H511        H  0.58356467  0.47889768  0.42811054     0.15000
H512        H  0.46928764  0.57434748  0.42828070     0.14800
C513        C  0.18285282  0.51104946  0.70131420    -0.18100
C514        C  0.14330732  0.53032551  0.71377533    -0.20300
C515        C  0.13646069  0.52913931  0.74449567     0.20400
C516        C  0.16978535  0.50871966  0.76297057    -0.03200
C517        C  0.20987633  0.48924530  0.75034425    -0.06300
C518        C  0.21622972  0.49046683  0.71939525     0.20700
C519        C  0.24365124  0.46892287  0.76861439     0.18800
C520        C  0.23665302  0.46806855  0.79940831    -0.17700
C521        C  0.19661504  0.48705417  0.81193046    -0.20000
C522        C  0.16287412  0.50748249  0.79394162     0.20300
C523        C  0.12188232  0.52561311  0.80613669    -0.33000
C524        C  0.08788870  0.54438305  0.78752136     0.01000
C525        C  0.09619721  0.54702448  0.75687878    -0.24300
C526        C  0.25640572  0.47228093  0.70699009    -0.28900
C527        C  0.29130261  0.45366350  0.72494927     0.06700
C528        C  0.28425033  0.45106949  0.75578937    -0.27600
H529        H  0.18743018  0.51242064  0.67751737     0.11400
H530        H  0.11790539  0.54591438  0.69935233     0.12500
H531        H  0.26217762  0.45277148  0.81382415     0.11600
H532        H  0.19200944  0.48565794  0.83572915     0.10800
H533        H  0.11556691  0.52321900  0.82974494     0.16200
H534        H  0.07040183  0.56190997  0.74239611     0.12100
H535        H  0.26126104  0.47433463  0.68321757     0.15000
H536        H  0.31107270  0.43724294  0.76985339     0.14800
C537        C  0.67535666  0.49356887  0.79650785    -0.18100
C538        C  0.63467344  0.47608461  0.78454389    -0.20300
C539        C  0.63075347  0.46899568  0.75391911     0.20400
C540        C  0.66760516  0.48030956  0.73499334    -0.03200
C541        C  0.70869469  0.49808314  0.74707649    -0.06300
C542        C  0.71262146  0.50413328  0.77799859     0.20700
C543        C  0.74617849  0.50864731  0.72835795     0.18800
C544        C  0.74174896  0.50216062  0.69766918    -0.17700
C545        C  0.70080511  0.48465550  0.68564359    -0.20000
C546        C  0.66362434  0.47324309  0.70412323     0.20300
C547        C  0.62255712  0.45497702  0.69237028    -0.33000
C548        C  0.58568316  0.44385840  0.71124920     0.01000
C549        C  0.59045280  0.45072954  0.74199896    -0.24300
C550        C  0.75432446  0.51889065  0.79004876    -0.28900
C551        C  0.79242640  0.52738610  0.77173854     0.06700
C552        C  0.78787000  0.52373357  0.74083684    -0.27600
H553        H  0.67792974  0.49815474  0.82027568     0.11400
H554        H  0.60640720  0.46771144  0.79926802     0.12500
H555        H  0.77020952  0.51007843  0.68296679     0.11600
H556        H  0.69836841  0.47965890  0.66193187     0.10800
H557        H  0.61909541  0.45008857  0.66868814     0.16200
H558        H  0.56249461  0.44214728  0.75693806     0.12100
H559        H  0.75773648  0.52204500  0.81388763     0.15000
H560        H  0.81744456  0.52994661  0.72670019     0.14800
C561        C  0.50639269  0.23005800  0.80008938    -0.18100
C562        C  0.52615758  0.19017791  0.81256443    -0.20300
C563        C  0.54349996  0.15454949  0.79440324     0.20400
C564        C  0.54206512  0.15997795  0.76333065    -0.03200
C565        C  0.52198511  0.20002854  0.75077067    -0.06300
C566        C  0.50347547  0.23504263  0.76920275     0.20700
C567        C  0.51997036  0.20468162  0.71972197     0.18800
C568        C  0.53887043  0.17009416  0.70148278    -0.17700
C569        C  0.55854270  0.13045762  0.71388429    -0.20000
C570        C  0.55963723  0.12483233  0.74470825     0.20300
C571        C  0.57641821  0.08380871  0.75710565    -0.33000
C572        C  0.57550983  0.07668865  0.78793428     0.01000
C573        C  0.56057377  0.11290046  0.80660769    -0.24300
C574        C  0.48283142  0.27447239  0.75637183    -0.28900
C575        C  0.48093275  0.27928863  0.72534544     0.06700
C576        C  0.49940444  0.24395611  0.70731869    -0.27600
H577        H  0.49288889  0.25677207  0.81462568     0.11400
H578        H  0.52719163  0.18687954  0.83643579     0.12500
H579        H  0.53797272  0.17345304  0.67761395     0.11600
H580        H  0.57218529  0.10379654  0.69933197     0.10800
H581        H  0.58869393  0.05645986  0.74253761     0.16200
H582        H  0.55990011  0.10772944  0.83035186     0.12100
H583        H  0.46973067  0.30199851  0.77045781     0.15000
H584        H  0.49857706  0.24742381  0.68343583     0.14800
C585        C  0.52060979  0.72780280  0.69943846    -0.18100
C586        C  0.50033243  0.68775811  0.68727695    -0.20300
C587        C  0.48573106  0.65121536  0.70563094     0.20400
C588        C  0.49225399  0.65507379  0.73654413    -0.03200
C589        C  0.51294993  0.69523264  0.74877167    -0.06300
C590        C  0.52680108  0.73206259  0.73018270     0.20700
C591        C  0.51879943  0.69889014  0.77971321     0.18800
C592        C  0.50499190  0.66226396  0.79810313    -0.17700
C593        C  0.48456347  0.62262611  0.78602810    -0.20000
C594        C  0.47779242  0.61893078  0.75536903     0.20300
C595        C  0.45729810  0.57929258  0.74331087    -0.33000
C596        C  0.45163847  0.57411339  0.71247584     0.01000
C597        C  0.46538052  0.61066392  0.69370997    -0.24300
C598        C  0.54478326  0.77307544  0.74283641    -0.28900
C599        C  0.54816257  0.77769954  0.77382756     0.06700
C600        C  0.53656592  0.73983028  0.79193569    -0.27600
H601        H  0.53100793  0.75570126  0.68478509     0.11400
H602        H  0.49584376  0.68549063  0.66352372     0.12500
H603        H  0.50936446  0.66457160  0.82188613     0.11600
H604        H  0.47385296  0.59488336  0.80071408     0.10800
H605        H  0.44669798  0.55172649  0.75818831     0.16200
H606        H  0.46153419  0.60702392  0.66996854     0.12100
H607        H  0.55343612  0.80228620  0.72874961     0.15000
H608        H  0.53947805  0.74302289  0.81579874     0.14800
C609        C  0.95273679  0.05526753  0.51986924    -0.18100
C610        C  0.94282382  0.04961463  0.48978069    -0.20300
C611        C  0.96941063  0.01979328  0.47210033     0.20400
C612        C  0.00686500  0.99590257  0.48478252    -0.03200
C613        C  0.01702786  0.00176078  0.51522225    -0.06300
C614        C  0.98961040  0.03135890  0.53283008     0.20700
C615        C  0.05442154  0.97791752  0.52802545     0.18800
C616        C  0.08143514  0.94861419  0.51016475    -0.17700
C617        C  0.07108605  0.94241554  0.48008151    -0.20000
C618        C  0.03361471  0.96561429  0.46720653     0.20300
C619        C  0.02155172  0.95800226  0.43737018    -0.33000
C620        C  0.98306092  0.98043787  0.42482806     0.01000
C621        C  0.95816714  0.01235959  0.44224145    -0.24300
C622        C  0.99977313  0.03715137  0.56300466    -0.28900
C623        C  0.03747421  0.01425260  0.57604410     0.06700
C624        C  0.06439969  0.98428342  0.55830854    -0.27600
H625        H  0.93148792  0.07828391  0.53302339     0.11400
H626        H  0.91390229  0.06823455  0.48039807     0.12500
H627        H  0.11049008  0.93016938  0.51952441     0.11600
H628        H  0.09213518  0.91917546  0.46695727     0.10800
H629        H  0.04121824  0.93352808  0.42423611     0.16200
H630        H  0.92846104  0.02985853  0.43298607     0.12100
H631        H  0.97892374  0.06059114  0.57614912     0.15000
H632        H  0.09383595  0.96673065  0.56787209     0.14800
C633        C  0.30385851  0.16196304  0.61898617    -0.18100
C634        C  0.33747358  0.19688204  0.61828841    -0.20300
C635        C  0.32482665  0.24397432  0.61880897     0.20400
C636        C  0.27776227  0.25594573  0.61903678    -0.03200
C637        C  0.24380513  0.22067979  0.61975274    -0.06300
C638        C  0.25696152  0.17349482  0.62019990     0.20700
C639        C  0.19680830  0.23271469  0.62120375     0.18800
C640        C  0.18412337  0.27978088  0.62105005    -0.17700
C641        C  0.21770970  0.31466708  0.62032535    -0.20000
C642        C  0.26460666  0.30312492  0.61978335     0.20300
C643        C  0.29845597  0.33791076  0.62142417    -0.33000
C644        C  0.34549290  0.32631058  0.62290431     0.01000
C645        C  0.35834628  0.27917313  0.62054438    -0.24300
C646        C  0.22318146  0.13876333  0.62307954    -0.28900
C647        C  0.17626029  0.15049029  0.62581945     0.06700
C648        C  0.16342039  0.19763837  0.62401676    -0.27600
H649        H  0.31459248  0.12592337  0.61924747     0.11400
H650        H  0.37345101  0.18701799  0.61805102     0.12500
H651        H  0.14818905  0.28965998  0.62214097     0.11600
H652        H  0.20700538  0.35071910  0.62089637     0.10800
H653        H  0.28790007  0.37393434  0.62319401     0.16200
H654        H  0.39436473  0.26958415  0.62162411     0.12100
H655        H  0.23371855  0.10271673  0.62447059     0.15000
H656        H  0.12754668  0.20735979  0.62621831     0.14800
C657        C  0.37440922  0.94759254  0.71661682    -0.18100
C658        C  0.33518367  0.96661597  0.70387435    -0.20300
C659        C  0.30273559  0.98960396  0.72153494     0.20400
C660        C  0.31005737  0.99439890  0.75226395    -0.03200
C661        C  0.34996913  0.97549165  0.76513101    -0.06300
C662        C  0.38191599  0.95175755  0.74713887     0.20700
C663        C  0.35782414  0.98006480  0.79587215     0.18800
C664        C  0.32540950  0.00374033  0.81338208    -0.17700
C665        C  0.28532601  0.02197660  0.80063642    -0.20000
C666        C  0.27715122  0.01720897  0.77011070     0.20300
C667        C  0.23606891  0.03317124  0.75718296    -0.33000
C668        C  0.22790454  0.02622962  0.72673145     0.01000
C669        C  0.26224163  0.00615485  0.70901600    -0.24300
C670        C  0.42139141  0.93316396  0.75976412    -0.28900
C671        C  0.43052397  0.93869240  0.79009317     0.06700
C672        C  0.39826667  0.96149135  0.80828054    -0.27600
H673        H  0.39891285  0.92961149  0.70259012     0.11400
H674        H  0.32985899  0.96270248  0.68024226     0.12500
H675        H  0.33088787  0.00785840  0.83696770     0.11600
H676        H  0.26053555  0.03946578  0.81469795     0.10800
H677        H  0.20967923  0.04871045  0.77098460     0.16200
H678        H  0.25652691  0.00133575  0.68546472     0.12100
H679        H  0.44587733  0.91523503  0.74564559     0.15000
H680        H  0.40537695  0.96617591  0.83165375     0.14800
C681        C  0.77721788  0.97972198  0.70204136    -0.18100
C682        C  0.81797606  0.99806338  0.69022559    -0.20300
C683        C  0.85570654  0.00770523  0.70863736     0.20400
C684        C  0.85238146  0.99798811  0.73923617    -0.03200
C685        C  0.81141249  0.97938157  0.75112910    -0.06300
C686        C  0.77346760  0.97061070  0.73249026     0.20700
C687        C  0.80809317  0.97067785  0.78181760     0.18800
C688        C  0.84590852  0.97950732  0.80022319    -0.17700
C689        C  0.88646936  0.99772524  0.78844797    -0.20000
C690        C  0.88979292  0.00741076  0.75809439     0.20300
C691        C  0.93004512  0.02633985  0.74637925    -0.33000
C692        C  0.93422265  0.03589820  0.71588270     0.01000
C693        C  0.89668825  0.02671063  0.69709753    -0.24300
C694        C  0.73194821  0.95471200  0.74483746    -0.28900
C695        C  0.72780302  0.94841813  0.77564120     0.06700
C696        C  0.76647530  0.95508974  0.79379470    -0.27600
H697        H  0.74839839  0.97322119  0.68741008     0.11400
H698        H  0.81984549  0.00507453  0.66668264     0.12500
H699        H  0.84388604  0.97294030  0.82381892     0.11600
H700        H  0.91516033  0.00463060  0.80314122     0.10800
H701        H  0.95850429  0.03331368  0.76127483     0.16200
H702        H  0.89962345  0.03353816  0.67356666     0.12100
H703        H  0.70215590  0.95000775  0.73072425     0.15000
H704        H  0.76360196  0.95007469  0.81753384     0.14800
C705        C  0.98282194  0.35379799  0.71490213    -0.18100
C706        C  0.00393754  0.31464373  0.70291507    -0.20300
C707        C  0.02068070  0.27973156  0.72153743     0.20400
C708        C  0.01735533  0.28469314  0.75256582    -0.03200
C709        C  0.99629987  0.32450527  0.76470347    -0.06300
C710        C  0.97854090  0.35870047  0.74566075     0.20700
C711        C  0.99244620  0.32983257  0.79573082     0.18800
C712        C  0.01019455  0.29508700  0.81427387    -0.17700
C713        C  0.03052964  0.25509900  0.80218297    -0.20000
C714        C  0.03386964  0.24936774  0.77134787     0.20300
C715        C  0.05145872  0.20822655  0.75885247    -0.33000
C716        C  0.05224992  0.20228681  0.72788113     0.01000
C717        C  0.03869007  0.23901637  0.70949946    -0.24300
C718        C  0.95703821  0.39761389  0.75755295    -0.28900
C719        C  0.95392271  0.40428815  0.78837230     0.06700
C720        C  0.97131360  0.36996930  0.80748555    -0.27600
H721        H  0.96957431  0.38016351  0.70009153     0.11400
H722        H  0.00633260  0.31122125  0.67906180     0.12500
H723        H  0.00786096  0.29857014  0.83810814     0.11600
H724        H  0.04313438  0.22838728  0.81695620     0.10800
H725        H  0.06186857  0.17995095  0.77316463     0.16200
H726        H  0.03976421  0.23493260  0.68562353     0.12100
H727        H  0.94356773  0.42353367  0.74247871     0.15000
H728        H  0.96952140  0.37502615  0.83123387     0.14800
C729        C  0.00059988  0.86641713  0.78162559    -0.18100
C730        C  0.98235335  0.82557880  0.79347798    -0.20300
C731        C  0.98147222  0.78466308  0.77656377     0.20400
C732        C  0.99787330  0.78521259  0.74708993    -0.03200
C733        C  0.01676155  0.82636029  0.73521957    -0.06300
C734        C  0.01855486  0.86682596  0.75276514     0.20700
C735        C  0.03471507  0.82674134  0.70610138     0.18800
C736        C  0.03247638  0.78606290  0.68892440    -0.17700
C737        C  0.01363528  0.74522145  0.70067846    -0.20000
C738        C  0.99672334  0.74432882  0.72981518     0.20300
C739        C  0.98034860  0.70292448  0.74239006    -0.33000
C740        C  0.96637221  0.70170567  0.77222935     0.01000
C741        C  0.96610268  0.74286078  0.78897702    -0.24300
C742        C  0.03894706  0.90692358  0.74140556    -0.28900
C743        C  0.05812715  0.90762487  0.71268486     0.06700
C744        C  0.05517659  0.86752214  0.69491380    -0.27600
H745        H  0.00147045  0.89749637  0.79524161     0.11400
H746        H  0.96962325  0.82580429  0.81604471     0.12500
H747        H  0.04585691  0.78565259  0.66654181     0.11600
H748        H  0.01301165  0.71406931  0.68712117     0.10800
H749        H  0.98114802  0.67104654  0.72951240     0.16200
H750        H  0.95526975  0.74197784  0.81196438     0.12100
H751        H  0.03987579  0.93780270  0.75523093     0.15000
H752        H  0.06920683  0.86785673  0.67268644     0.14800
loop_ 
_geom_bond_atom_site_label_1 
_geom_bond_atom_site_label_2 
_geom_bond_distance 
_geom_bond_site_symmetry_2 
_ccdc_geom_bond_type 
Fe1          O17   2.078       .  S
Fe1           O7   2.061       .  S
Fe1          O14   2.070       .  S
Fe1           O6   2.086   1_545  S
Fe1          O12   1.953       .  S
Fe2           O5   2.045       .  S
Fe2           O9   2.094       .  S
Fe2          O13   2.060       .  S
Fe2          O18   2.097   1_455  S
Fe2          O12   1.950       .  S
Fe3          O21   2.052       .  S
Fe3           O8   2.045       .  S
Fe3          O15   2.052       .  S
Fe3           O4   2.058   1_545  S
Fe3          O12   1.963       .  S
O4           C11   1.272       .  A
O5           C19   1.263       .  A
O6           C11   1.279       .  A
O7           C10   1.266       .  A
O8           C20   1.272   1_455  A
O9           C22   1.286       .  A
C10          O15   1.261       .  A
C10         C668   1.476       .  S
C11         C743   1.484       .  S
O13          C16   1.261       .  A
O14          C16   1.262       .  A
C16         C623   1.494       .  S
O17          C22   1.284       .  A
O18          C20   1.281       .  A
C19          O21   1.261       .  A
C19         C716   1.474       .  S
C20         C692   1.484       .  S
C22         C647   1.490       .  S
Fe23         O39   2.087       .  S
Fe23         O29   2.052       .  S
Fe23         O36   2.060       .  S
Fe23         O28   2.092       .  S
Fe23         O34   1.955       .  S
Fe24         O27   2.051       .  S
Fe24         O31   2.084       .  S
Fe24         O35   2.067       .  S
Fe24         O40   2.083       .  S
Fe24         O34   1.960       .  S
Fe25         O43   2.071       .  S
Fe25         O30   2.048       .  S
Fe25         O37   2.071       .  S
Fe25         O26   2.058       .  S
Fe25         O34   1.966       .  S
O26          C33   1.273       .  A
O27          C41   1.263       .  A
O28          C33   1.279       .  A
O29          C32   1.264       .  A
O30          C42   1.273       .  A
O31          C44   1.284       .  A
C32          O37   1.266       .  A
C32         C527   1.484       .  S
C33         C596   1.488       .  S
O35          C38   1.261       .  A
O36          C38   1.261       .  A
C38         C500   1.494       .  S
O39          C44   1.285       .  A
O40          C42   1.279       .  A
C41          O43   1.266       .  A
C41         C575   1.484       .  S
C42         C548   1.479       .  S
C44         C644   1.490       .  S
Fe45         O61   2.103       .  S
Fe45         O51   2.048       .  S
Fe45         O58   2.068       .  S
Fe45         O50   2.103       .  S
Fe45         O56   1.955       .  S
Fe46         O49   2.069       .  S
Fe46         O53   2.074       .  S
Fe46         O57   2.061       .  S
Fe46         O62   2.073       .  S
Fe46         O56   1.958       .  S
Fe47         O65   2.065       .  S
Fe47         O52   2.066       .  S
Fe47         O59   2.064       .  S
Fe47         O48   2.052       .  S
Fe47         O56   1.959       .  S
O48          C55   1.273       .  A
O49          C63   1.265       .  A
O50          C55   1.281       .  A
O51          C54   1.264       .  A
O52          C64   1.274       .  A
O53          C66   1.283       .  A
C54          O59   1.264       .  A
C54         C404   1.483       .  S
C55         C476   1.490       .  S
O57          C60   1.261       .  A
O58          C60   1.263       .  A
C60         C503   1.493       .  S
O61          C66   1.287       .  A
O62          C64   1.275       .  A
C63          O65   1.263       .  A
C63         C455   1.470       .  S
C64         C431   1.471       .  S
C66         C380   1.491       .  S
Fe67         O83   2.084       .  S
Fe67         O73   2.063       .  S
Fe67         O80   2.062       .  S
Fe67         O72   2.091   1_655  S
Fe67         O78   1.967       .  S
Fe68         O71   2.063       .  S
Fe68         O75   2.083       .  S
Fe68         O79   2.069       .  S
Fe68         O84   2.092   1_565  S
Fe68         O78   1.972       .  S
Fe69         O87   2.057       .  S
Fe69         O74   2.033   1_565  S
Fe69         O81   2.046       .  S
Fe69         O70   2.064   1_655  S
Fe69         O78   1.967       .  S
O70          C77   1.273       .  A
O71          C85   1.266       .  A
O72          C77   1.276       .  A
O73          C76   1.266       .  A
O74          C86   1.268       .  A
O75          C88   1.280       .  A
C76          O81   1.260       .  A
C76         C311   1.471       .  S
C77         C335   1.484       .  S
O79          C82   1.265       .  A
O80          C82   1.262       .  A
C82         C620   1.492       .  S
O83          C88   1.281       .  A
O84          C86   1.277       .  A
C85          O87   1.264       .  A
C85         C359   1.483       .  S
C86         C284   1.479       .  S
C88         C383   1.490       .  S
Fe89        O105   2.075       .  S
Fe89         O95   2.053       .  S
Fe89        O102   2.053       .  S
Fe89         O94   2.084       .  S
Fe89        O100   1.966       .  S
Fe90         O93   2.063       .  S
Fe90         O97   2.091       .  S
Fe90        O101   2.065       .  S
Fe90        O106   2.098   1_655  S
Fe90        O100   1.959       .  S
Fe91        O109   2.048       .  S
Fe91         O96   2.046   1_655  S
Fe91        O103   2.055       .  S
Fe91         O92   2.047       .  S
Fe91        O100   1.962       .  S
O92          C99   1.271       .  A
O93         C107   1.266       .  A
O94          C99   1.276       .  A
O95          C98   1.264       .  A
O96         C108   1.271       .  A
O97         C110   1.283       .  A
C98         O103   1.262       .  A
C98         C551   1.470       .  S
C99         C719   1.480       .  S
O101        C104   1.263       .  A
O102        C104   1.260       .  A
C104        C236   1.488       .  S
O105        C110   1.280       .  A
O106        C108   1.279       .  A
C107        O109   1.262       .  A
C107        C740   1.474       .  S
C108        C524   1.481       .  S
C110        C260   1.490       .  S
Fe111       O127   2.091       .  S
Fe111       O117   2.056       .  S
Fe111       O124   2.071       .  S
Fe111       O116   2.097   1_565  S
Fe111       O122   1.965       .  S
Fe112       O115   2.062       .  S
Fe112       O119   2.065       .  S
Fe112       O123   2.060       .  S
Fe112       O128   2.076       .  S
Fe112       O122   1.965       .  S
Fe113       O131   2.063       .  S
Fe113       O118   2.056       .  S
Fe113       O125   2.057       .  S
Fe113       O114   2.049       .  S
Fe113       O122   1.968       .  S
O114        C121   1.271   1_565  A
O115        C129   1.266       .  A
O116        C121   1.279       .  A
O117        C120   1.265       .  A
O118        C130   1.273       .  A
O119        C132   1.278       .  A
C120        O125   1.264       .  A
C120        C695   1.478       .  S
C121        C572   1.483       .  S
O123        C126   1.262       .  A
O124        C126   1.264       .  A
C126        C212   1.493       .  S
O127        C132   1.282       .  A
O128        C130   1.275       .  A
C129        O131   1.264       .  A
C129        C599   1.480       .  S
C130        C671   1.474       .  S
C132        C263   1.488       .  S
Fe133       O149   2.099       .  S
Fe133       O139   2.045       .  S
Fe133       O146   2.063       .  S
Fe133       O138   2.110   1_455  S
Fe133       O144   1.944       .  S
Fe134       O137   2.092       .  S
Fe134       O141   2.069       .  S
Fe134       O145   2.067       .  S
Fe134       O150   2.100       .  S
Fe134       O144   1.946       .  S
Fe135       O153   2.058       .  S
Fe135       O140   2.046       .  S
Fe135       O147   2.066       .  S
Fe135       O136   2.044   1_455  S
Fe135       O144   1.952       .  S
O136        C143   1.272       .  A
O137        C151   1.275       .  A
O138        C143   1.283       .  A
O139        C142   1.262       .  A
O140        C152   1.262       .  A
O141        C154   1.280       .  A
C142        O147   1.264       .  A
C142        C287   1.472       .  S
C143        C452   1.472       .  S
O145        C148   1.266       .  A
O146        C148   1.264       .  A
C148        C239   1.489       .  S
O149        C154   1.284       .  A
O150        C152   1.272       .  A
C151        O153   1.272       .  A
C151        C479   1.470       .  S
C152        C308   1.482       .  S
C154        C191   1.492       .  S
Fe155       O171   2.094       .  S
Fe155       O161   2.043       .  S
Fe155       O168   2.062       .  S
Fe155       O160   2.096       .  S
Fe155       O166   1.957       .  S
Fe156       O159   2.059       .  S
Fe156       O163   2.082       .  S
Fe156       O167   2.071       .  S
Fe156       O172   2.082   1_545  S
Fe156       O166   1.960       .  S
Fe157       O175   2.074       .  S
Fe157       O162   2.055       .  S
Fe157       O169   2.070       .  S
Fe157       O158   2.054       .  S
Fe157       O166   1.967       .  S
O158        C165   1.272       .  A
O159        C173   1.265       .  A
O160        C165   1.279       .  A
O161        C164   1.263       .  A
O162        C174   1.274   1_545  A
O163        C176   1.283       .  A
C164        O169   1.266       .  A
C164        C428   1.483       .  S
C165        C356   1.485       .  S
O167        C170   1.262       .  A
O168        C170   1.261       .  A
C170        C215   1.495       .  S
O171        C176   1.285       .  A
O172        C174   1.278       .  A
C173        O175   1.265       .  A
C173        C332   1.491       .  S
C174        C407   1.474       .  S
C176        C188   1.492       .  S
C177        C178   1.401       .  A
C177        C182   1.404       .  A
C177        H193   1.084       .  S
C178        C179   1.405       .  A
C178        H194   1.083       .  S
C179        C189   1.407       .  A
C179        C180   1.411       .  A
C180        C186   1.411       .  A
C180        C181   1.416       .  A
C181        C183   1.411       .  A
C181        C182   1.411       .  A
C182        C190   1.407       .  A
C183        C192   1.405       .  A
C183        C184   1.404       .  A
C184        C185   1.400       .  A
C184        H195   1.083       .  S
C185        C186   1.404       .  A
C185        H196   1.084       .  S
C186        C187   1.406       .  A
C187        C188   1.410       .  A
C187        H197   1.084       .  S
C188        C189   1.411       .  A
C189        H198   1.083       .  S
C190        C191   1.410       .  A
C190        H199   1.084       .  S
C191        C192   1.411       .  A
C192        H200   1.083       .  S
C201        C202   1.401   1_554  A
C201        C206   1.404       .  A
C201        H217   1.085       .  S
C202        C203   1.405       .  A
C202        H218   1.082       .  S
C203        C213   1.407       .  A
C203        C204   1.410       .  A
C204        C210   1.412   1_565  A
C204        C205   1.417   1_566  A
C205        C207   1.410       .  A
C205        C206   1.412   1_545  A
C206        C214   1.409       .  A
C207        C216   1.406       .  A
C207        C208   1.405       .  A
C208        C209   1.401   1_554  A
C208        H219   1.082       .  S
C209        C210   1.404       .  A
C209        H220   1.085       .  S
C210        C211   1.408       .  A
C211        C212   1.410   1_545  A
C211        H221   1.085       .  S
C212        C213   1.411       .  A
C213        H222   1.083       .  S
C214        C215   1.411   1_565  A
C214        H223   1.085       .  S
C215        C216   1.411       .  A
C216        H224   1.083       .  S
C225        C226   1.401   1_554  A
C225        C230   1.405       .  A
C225        H241   1.082       .  S
C226        C227   1.405       .  A
C226        H242   1.085       .  S
C227        C237   1.406       .  A
C227        C228   1.411       .  A
C228        C234   1.411   1_655  A
C228        C229   1.414   1_656  A
C229        C231   1.410       .  A
C229        C230   1.411   1_455  A
C230        C238   1.408       .  A
C231        C240   1.402       .  A
C231        C232   1.403       .  A
C232        C233   1.398   1_554  A
C232        H243   1.085       .  S
C233        C234   1.403       .  A
C233        H244   1.082       .  S
C234        C235   1.403       .  A
C235        C236   1.407   1_455  A
C235        H245   1.083       .  S
C236        C237   1.412       .  A
C237        H246   1.085       .  S
C238        C239   1.411   1_655  A
C238        H247   1.083       .  S
C239        C240   1.408       .  A
C240        H248   1.085       .  S
C249        C250   1.399       .  A
C249        C254   1.403       .  A
C249        H265   1.083       .  S
C250        C251   1.404       .  A
C250        H266   1.084       .  S
C251        C261   1.404       .  A
C251        C252   1.411       .  A
C252        C258   1.411       .  A
C252        C253   1.414       .  A
C253        C255   1.411       .  A
C253        C254   1.411       .  A
C254        C262   1.404       .  A
C255        C264   1.404       .  A
C255        C256   1.404       .  A
C256        C257   1.400       .  A
C256        H267   1.084       .  S
C257        C258   1.404       .  A
C257        H268   1.083       .  S
C258        C259   1.406       .  A
C259        C260   1.411       .  A
C259        H269   1.084       .  S
C260        C261   1.409       .  A
C261        H270   1.084       .  S
C262        C263   1.409       .  A
C262        H271   1.084       .  S
C263        C264   1.410       .  A
C264        H272   1.084       .  S
C273        C274   1.393       .  A
C273        C278   1.401       .  A
C273        H289   1.083       .  S
C274        C275   1.402   1_455  A
C274        H290   1.084       .  S
C275        C285   1.390       .  A
C275        C276   1.407       .  A
C276        C282   1.414       .  A
C276        C277   1.409       .  A
C277        C279   1.410       .  A
C277        C278   1.413   1_655  A
C278        C286   1.396       .  A
C279        C288   1.405   1_655  A
C279        C280   1.405       .  A
C280        C281   1.402       .  A
C280        H291   1.084       .  S
C281        C282   1.404       .  A
C281        H292   1.083       .  S
C282        C283   1.410       .  A
C283        C284   1.406       .  A
C283        H293   1.083       .  S
C284        C285   1.409       .  A
C285        H294   1.084       .  S
C286        C287   1.402       .  A
C286        H295   1.084       .  S
C287        C288   1.408       .  A
C288        H296   1.085   1_455  S
C297        C298   1.403       .  A
C297        C302   1.406       .  A
C297        H313   1.084       .  S
C298        C299   1.404   1_655  A
C298        H314   1.083   1_655  S
C299        C309   1.412       .  A
C299        C300   1.415   1_455  A
C300        C306   1.406   1_655  A
C300        C301   1.409       .  A
C301        C303   1.413       .  A
C301        C302   1.410       .  A
C302        C310   1.406       .  A
C303        C312   1.395       .  A
C303        C304   1.400       .  A
C304        C305   1.392       .  A
C304        H315   1.084       .  S
C305        C306   1.403   1_655  A
C305        H316   1.082       .  S
C306        C307   1.389       .  A
C307        C308   1.410       .  A
C307        H317   1.083       .  S
C308        C309   1.407       .  A
C309        H318   1.084       .  S
C310        C311   1.408       .  A
C310        H319   1.084       .  S
C311        C312   1.401       .  A
C312        H320   1.085       .  S
C321        C322   1.406       .  A
C321        C326   1.407   1_545  A
C321        H337   1.083       .  S
C322        C323   1.407       .  A
C322        H338   1.085       .  S
C323        C333   1.415       .  A
C323        C324   1.412       .  A
C324        C330   1.409   1_545  A
C324        C325   1.415   1_545  A
C325        C327   1.410       .  A
C325        C326   1.413       .  A
C326        C334   1.414       .  A
C327        C336   1.397       .  A
C327        C328   1.402       .  A
C328        C329   1.394       .  A
C328        H339   1.082       .  S
C329        C330   1.401       .  A
C329        H340   1.084       .  S
C330        C331   1.396   1_565  A
C331        C332   1.407       .  A
C331        H341   1.084       .  S
C332        C333   1.413       .  A
C333        H342   1.086       .  S
C334        C335   1.410       .  A
C334        H343   1.084       .  S
C335        C336   1.406       .  A
C336        H344   1.084       .  S
C345        C346   1.402   1_565  A
C345        C350   1.405       .  A
C345        H361   1.084       .  S
C346        C347   1.404       .  A
C346        H362   1.083       .  S
C347        C357   1.412       .  A
C347        C348   1.415       .  A
C348        C354   1.408       .  A
C348        C349   1.412       .  A
C349        C351   1.413       .  A
C349        C350   1.410   1_545  A
C350        C358   1.406       .  A
C351        C360   1.400   1_545  A
C351        C352   1.402       .  A
C352        C353   1.396       .  A
C352        H363   1.084       .  S
C353        C354   1.403       .  A
C353        H364   1.084       .  S
C354        C355   1.395       .  A
C355        C356   1.410       .  A
C355        H365   1.085       .  S
C356        C357   1.408       .  A
C357        H366   1.083       .  S
C358        C359   1.410       .  A
C358        H367   1.084       .  S
C359        C360   1.406       .  A
C360        H368   1.084       .  S
C369        C370   1.401       .  A
C369        C374   1.405       .  A
C369        H385   1.083       .  S
C370        C371   1.404       .  A
C370        H386   1.084       .  S
C371        C381   1.407       .  A
C371        C372   1.412       .  A
C372        C378   1.411       .  A
C372        C373   1.416       .  A
C373        C375   1.412       .  A
C373        C374   1.411       .  A
C374        C382   1.406       .  A
C375        C384   1.406       .  A
C375        C376   1.404       .  A
C376        C377   1.400       .  A
C376        H387   1.084       .  S
C377        C378   1.404       .  A
C377        H388   1.083       .  S
C378        C379   1.405       .  A
C379        C380   1.410       .  A
C379        H389   1.084       .  S
C380        C381   1.410       .  A
C381        H390   1.085       .  S
C382        C383   1.411       .  A
C382        H391   1.084       .  S
C383        C384   1.409       .  A
C384        H392   1.084       .  S
C393        C394   1.392       .  A
C393        C398   1.401       .  A
C393        H409   1.084       .  S
C394        C395   1.401       .  A
C394        H410   1.084       .  S
C395        C405   1.393       .  A
C395        C396   1.410       .  A
C396        C402   1.411       .  A
C396        C397   1.410       .  A
C397        C399   1.414       .  A
C397        C398   1.409       .  A
C398        C406   1.391       .  A
C399        C408   1.411       .  A
C399        C400   1.405       .  A
C400        C401   1.404       .  A
C400        H411   1.083       .  S
C401        C402   1.406       .  A
C401        H412   1.084       .  S
C402        C403   1.409       .  A
C403        C404   1.411       .  A
C403        H413   1.084       .  S
C404        C405   1.406       .  A
C405        H414   1.085       .  S
C406        C407   1.404       .  A
C406        H415   1.086       .  S
C407        C408   1.407       .  A
C408        H416   1.083       .  S
C417        C418   1.393       .  A
C417        C422   1.401       .  A
C417        H433   1.085       .  S
C418        C419   1.402       .  A
C418        H434   1.082       .  S
C419        C429   1.393       .  A
C419        C420   1.409       .  A
C420        C426   1.412       .  A
C420        C421   1.410       .  A
C421        C423   1.413       .  A
C421        C422   1.410       .  A
C422        C430   1.392       .  A
C423        C432   1.409       .  A
C423        C424   1.405       .  A
C424        C425   1.403       .  A
C424        H435   1.083       .  S
C425        C426   1.405       .  A
C425        H436   1.085       .  S
C426        C427   1.409       .  A
C427        C428   1.409       .  A
C427        H437   1.085       .  S
C428        C429   1.408       .  A
C429        H438   1.083       .  S
C430        C431   1.403       .  A
C430        H439   1.086       .  S
C431        C432   1.407       .  A
C432        H440   1.084       .  S
C441        C442   1.400       .  A
C441        C446   1.404       .  A
C441        H457   1.083       .  S
C442        C443   1.404       .  A
C442        H458   1.086       .  S
C443        C453   1.400       .  A
C443        C444   1.410       .  A
C444        C450   1.415       .  A
C444        C445   1.412       .  A
C445        C447   1.410       .  A
C445        C446   1.415       .  A
C446        C454   1.408       .  A
C447        C456   1.399       .  A
C447        C448   1.404       .  A
C448        C449   1.399       .  A
C448        H459   1.085       .  S
C449        C450   1.403       .  A
C449        H460   1.082       .  S
C450        C451   1.406       .  A
C451        C452   1.403       .  A
C451        H461   1.083       .  S
C452        C453   1.406       .  A
C453        H462   1.087       .  S
C454        C455   1.403       .  A
C454        H463   1.084       .  S
C455        C456   1.405       .  A
C456        H464   1.086       .  S
C465        C466   1.403       .  A
C465        C470   1.405       .  A
C465        H481   1.084       .  S
C466        C467   1.405       .  A
C466        H482   1.084       .  S
C467        C477   1.412       .  A
C467        C468   1.414       .  A
C468        C474   1.408       .  A
C468        C469   1.414       .  A
C469        C471   1.414       .  A
C469        C470   1.411       .  A
C470        C478   1.408       .  A
C471        C480   1.401       .  A
C471        C472   1.402       .  A
C472        C473   1.396       .  A
C472        H483   1.082       .  S
C473        C474   1.403       .  A
C473        H484   1.084       .  S
C474        C475   1.397       .  A
C475        C476   1.411       .  A
C475        H485   1.084       .  S
C476        C477   1.409       .  A
C477        H486   1.084       .  S
C478        C479   1.407       .  A
C478        H487   1.085       .  S
C479        C480   1.401       .  A
C480        H488   1.083       .  S
C489        C490   1.401       .  A
C489        C494   1.405       .  A
C489        H505   1.084       .  S
C490        C491   1.405       .  A
C490        H506   1.082       .  S
C491        C501   1.409       .  A
C491        C492   1.412       .  A
C492        C498   1.410       .  A
C492        C493   1.416       .  A
C493        C495   1.412       .  A
C493        C494   1.411       .  A
C494        C502   1.407       .  A
C495        C504   1.407       .  A
C495        C496   1.404       .  A
C496        C497   1.400       .  A
C496        H507   1.082       .  S
C497        C498   1.404       .  A
C497        H508   1.084       .  S
C498        C499   1.406       .  A
C499        C500   1.411       .  A
C499        H509   1.085       .  S
C500        C501   1.411       .  A
C501        H510   1.083       .  S
C502        C503   1.411       .  A
C502        H511   1.085       .  S
C503        C504   1.410       .  A
C504        H512   1.083       .  S
C513        C514   1.394       .  A
C513        C518   1.402       .  A
C513        H529   1.084       .  S
C514        C515   1.402       .  A
C514        H530   1.084       .  S
C515        C525   1.395       .  A
C515        C516   1.409       .  A
C516        C522   1.414       .  A
C516        C517   1.413       .  A
C517        C519   1.412       .  A
C517        C518   1.410       .  A
C518        C526   1.396       .  A
C519        C528   1.411       .  A
C519        C520   1.406       .  A
C520        C521   1.404       .  A
C520        H531   1.083       .  S
C521        C522   1.405       .  A
C521        H532   1.084       .  S
C522        C523   1.412       .  A
C523        C524   1.408       .  A
C523        H533   1.084       .  S
C524        C525   1.407       .  A
C525        H534   1.085       .  S
C526        C527   1.407       .  A
C526        H535   1.085       .  S
C527        C528   1.410       .  A
C528        H536   1.083       .  S
C537        C538   1.393       .  A
C537        C542   1.401       .  A
C537        H553   1.084       .  S
C538        C539   1.402       .  A
C538        H554   1.084       .  S
C539        C549   1.391       .  A
C539        C540   1.408       .  A
C540        C546   1.413       .  A
C540        C541   1.408       .  A
C541        C543   1.411       .  A
C541        C542   1.412       .  A
C542        C550   1.394       .  A
C543        C552   1.405       .  A
C543        C544   1.404       .  A
C544        C545   1.401       .  A
C544        H555   1.084       .  S
C545        C546   1.404       .  A
C545        H556   1.083       .  S
C546        C547   1.407       .  A
C547        C548   1.406       .  A
C547        H557   1.083       .  S
C548        C549   1.409       .  A
C549        H558   1.084       .  S
C550        C551   1.403       .  A
C550        H559   1.085       .  S
C551        C552   1.406       .  A
C552        H560   1.085       .  S
C561        C562   1.404       .  A
C561        C566   1.406       .  A
C561        H577   1.083       .  S
C562        C563   1.405       .  A
C562        H578   1.083       .  S
C563        C573   1.411       .  A
C563        C564   1.413       .  A
C564        C570   1.409       .  A
C564        C565   1.413       .  A
C565        C567   1.410       .  A
C565        C566   1.412       .  A
C566        C574   1.410       .  A
C567        C576   1.398       .  A
C567        C568   1.402       .  A
C568        C569   1.395       .  A
C568        H579   1.083       .  S
C569        C570   1.403       .  A
C569        H580   1.084       .  S
C570        C571   1.396       .  A
C571        C572   1.408       .  A
C571        H581   1.085       .  S
C572        C573   1.407       .  A
C573        H582   1.083       .  S
C574        C575   1.410       .  A
C574        H583   1.084       .  S
C575        C576   1.407       .  A
C576        H584   1.084       .  S
C585        C586   1.404       .  A
C585        C590   1.405       .  A
C585        H601   1.084       .  S
C586        C587   1.405       .  A
C586        H602   1.083       .  S
C587        C597   1.412       .  A
C587        C588   1.413       .  A
C588        C594   1.408       .  A
C588        C589   1.413       .  A
C589        C591   1.412       .  A
C589        C590   1.411       .  A
C590        C598   1.409       .  A
C591        C600   1.397       .  A
C591        C592   1.401       .  A
C592        C593   1.395       .  A
C592        H603   1.084       .  S
C593        C594   1.403       .  A
C593        H604   1.084       .  S
C594        C595   1.395       .  A
C595        C596   1.410       .  A
C595        H605   1.085       .  S
C596        C597   1.409       .  A
C597        H606   1.083       .  S
C598        C599   1.409       .  A
C598        H607   1.084       .  S
C599        C600   1.404       .  A
C600        H608   1.085       .  S
C609        C610   1.399       .  A
C609        C614   1.404       .  A
C609        H625   1.082       .  S
C610        C611   1.403       .  A
C610        H626   1.085       .  S
C611        C621   1.404       .  A
C611        C612   1.411   1_645  A
C612        C618   1.411       .  A
C612        C613   1.416   1_565  A
C613        C615   1.411   1_545  A
C613        C614   1.410   1_455  A
C614        C622   1.404       .  A
C615        C624   1.410       .  A
C615        C616   1.405       .  A
C616        C617   1.403       .  A
C616        H627   1.085       .  S
C617        C618   1.406       .  A
C617        H628   1.082       .  S
C618        C619   1.409       .  A
C619        C620   1.412   1_455  A
C619        H629   1.083       .  S
C620        C621   1.408   1_565  A
C621        H630   1.085       .  S
C622        C623   1.410   1_655  A
C622        H631   1.083       .  S
C623        C624   1.412   1_545  A
C624        H632   1.085       .  S
C633        C634   1.400       .  A
C633        C638   1.404       .  A
C633        H649   1.083       .  S
C634        C635   1.404       .  A
C634        H650   1.084       .  S
C635        C645   1.406       .  A
C635        C636   1.411       .  A
C636        C642   1.411       .  A
C636        C637   1.414       .  A
C637        C639   1.411       .  A
C637        C638   1.411       .  A
C638        C646   1.406       .  A
C639        C648   1.405       .  A
C639        C640   1.404       .  A
C640        C641   1.399       .  A
C640        H651   1.084       .  S
C641        C642   1.404       .  A
C641        H652   1.083       .  S
C642        C643   1.404       .  A
C643        C644   1.410       .  A
C643        H653   1.084       .  S
C644        C645   1.411       .  A
C645        H654   1.084       .  S
C646        C647   1.411       .  A
C646        H655   1.084       .  S
C647        C648   1.410       .  A
C648        H656   1.084       .  S
C657        C658   1.391       .  A
C657        C662   1.401       .  A
C657        H673   1.084       .  S
C658        C659   1.400       .  A
C658        H674   1.084       .  S
C659        C669   1.392   1_565  A
C659        C660   1.411       .  A
C660        C666   1.412   1_565  A
C660        C661   1.409       .  A
C661        C663   1.413       .  A
C661        C662   1.409       .  A
C662        C670   1.390       .  A
C663        C672   1.410       .  A
C663        C664   1.405   1_565  A
C664        C665   1.403       .  A
C664        H675   1.083       .  S
C665        C666   1.406       .  A
C665        H676   1.084       .  S
C666        C667   1.408       .  A
C667        C668   1.410       .  A
C667        H677   1.084       .  S
C668        C669   1.403       .  A
C669        H678   1.085       .  S
C670        C671   1.404       .  A
C670        H679   1.085       .  S
C671        C672   1.408       .  A
C672        H680   1.084       .  S
C681        C682   1.402       .  A
C681        C686   1.405       .  A
C681        H697   1.083       .  S
C682        C683   1.404   1_565  A
C682        H698   1.084   1_565  S
C683        C693   1.410       .  A
C683        C684   1.414   1_545  A
C684        C690   1.408   1_565  A
C684        C685   1.411       .  A
C685        C687   1.412       .  A
C685        C686   1.410       .  A
C686        C694   1.405       .  A
C687        C696   1.398       .  A
C687        C688   1.401       .  A
C688        C689   1.395       .  A
C688        H699   1.084       .  S
C689        C690   1.403   1_565  A
C689        H700   1.084   1_565  S
C690        C691   1.394       .  A
C691        C692   1.410       .  A
C691        H701   1.085       .  S
C692        C693   1.407       .  A
C693        H702   1.085       .  S
C694        C695   1.409       .  A
C694        H703   1.084       .  S
C695        C696   1.405       .  A
C696        H704   1.085       .  S
C705        C706   1.391   1_655  A
C705        C710   1.401       .  A
C705        H721   1.084       .  S
C706        C707   1.400       .  A
C706        H722   1.084       .  S
C707        C717   1.392       .  A
C707        C708   1.412       .  A
C708        C714   1.411       .  A
C708        C709   1.409   1_455  A
C709        C711   1.414       .  A
C709        C710   1.408       .  A
C710        C718   1.389       .  A
C711        C720   1.411       .  A
C711        C712   1.405   1_655  A
C712        C713   1.403       .  A
C712        H723   1.083       .  S
C713        C714   1.405       .  A
C713        H724   1.084       .  S
C714        C715   1.406       .  A
C715        C716   1.409       .  A
C715        H725   1.084       .  S
C716        C717   1.403       .  A
C717        H726   1.085       .  S
C718        C719   1.408       .  A
C718        H727   1.085       .  S
C719        C720   1.408       .  A
C720        H728   1.083       .  S
C729        C730   1.396   1_455  A
C729        C734   1.404       .  A
C729        H745   1.084       .  S
C730        C731   1.401       .  A
C730        H746   1.084       .  S
C731        C741   1.400       .  A
C731        C732   1.414       .  A
C732        C738   1.410       .  A
C732        C733   1.411   1_655  A
C733        C735   1.414       .  A
C733        C734   1.407       .  A
C734        C742   1.395       .  A
C735        C744   1.409       .  A
C735        C736   1.403       .  A
C736        C737   1.401       .  A
C736        H747   1.083       .  S
C737        C738   1.405   1_455  A
C737        H748   1.084       .  S
C738        C739   1.403       .  A
C739        C740   1.408       .  A
C739        H749   1.085       .  S
C740        C741   1.403       .  A
C741        H750   1.085       .  S
C742        C743   1.412       .  A
C742        H751   1.085       .  S
C743        C744   1.406       .  A
C744        H752   1.083       .  S
