geometry optimzed in LAMMPS
_audit_creation_date              2020-11-30 
_audit_creation_method            'lammps2cif' 
_symmetry_space_group_name_H-M    'P1' 
_symmetry_Int_Tables_number       1 
_symmetry_cell_setting            triclinic 
loop_ 
_symmetry_equiv_pos_as_xyz 
  x,y,z 
_cell_length_a                    30.91894835 
_cell_length_b                    30.946825251810708 
_cell_length_c                    54.47291859568294 
_cell_angle_alpha                 89.83745246436094 
_cell_angle_beta                  90.07506173845731 
_cell_angle_gamma                 120.10187687591804 
loop_ 
_atom_site_label 
_atom_site_type_symbol 
_atom_site_fract_x 
_atom_site_fract_y 
_atom_site_fract_z 
_atom_site_charge 
Zr1        Zr  0.58945001  0.75319151  0.64885547     2.17500
O2          O  0.53729233  0.69251282  0.67997978    -0.51800
O3          O  0.52422925  0.77377873  0.64067816    -0.75000
O4          O  0.59663126  0.79018221  0.68938878    -0.81800
O5          O  0.54589274  0.64587713  0.60285174    -0.83500
O6          O  0.66979813  0.86361058  0.69067826    -0.79100
O7          O  0.52592785  0.66887737  0.63869241    -0.90800
O8          O  0.54672035  0.82362401  0.60699219    -0.76700
O9          O  0.62975182  0.83884193  0.63721154    -0.86200
O10         O  0.58544885  0.75466125  0.60517721    -0.85900
O11         O  0.67300790  0.78667749  0.66432436    -0.72700
O12         O  0.63098782  0.71008522  0.63410712    -0.84800
Zr13       Zr  0.75260772  0.83298151  0.59318788     2.26400
Zr14       Zr  0.71325982  0.87249455  0.65195855     2.06300
Zr15       Zr  0.62765989  0.71314376  0.59018274     2.10000
Zr16       Zr  0.62775215  0.84007457  0.59344741     1.78800
O17         O  0.62091680  0.63168882  0.58597356    -0.93600
O18         O  0.63597661  0.92177159  0.59980935    -0.41400
O19         O  0.66945496  0.79856345  0.57732813    -0.78000
O20         O  0.71164598  0.87654402  0.60798368    -0.96700
O21         O  0.75622592  0.83174908  0.63685395    -0.90000
O22         O  0.71125665  0.74750334  0.60493736    -0.92900
C23         C  0.51639812  0.79927562  0.62442451     1.00900
C24         C  0.51658534  0.63788898  0.62116023     1.13800
C25         C  0.62900902  0.82979552  0.70064265     1.04600
O26         O  0.70515488  0.94680194  0.65335525    -0.95000
O27         O  0.79485306  0.93841207  0.63922505    -0.90800
O28         O  0.81877288  0.91544472  0.60454388    -0.83900
C29         C  0.82600058  0.94642926  0.62182780     1.11200
O30         O  0.67808275  0.68352005  0.68057394    -0.97000
Zr31       Zr  0.71566458  0.74644304  0.64831382     1.88900
O32         O  0.82202888  0.82037293  0.60275647    -0.73600
O33         O  0.77254368  0.89998720  0.68592557    -0.52900
O34         O  0.76040790  0.77576332  0.68709631    -0.97600
O35         O  0.71643227  0.67026525  0.63778456    -0.54800
O36         O  0.80276787  0.77617492  0.63826347    -0.74200
C37         C  0.83286736  0.80043380  0.62062593     0.98200
O38         O  0.78919333  0.88748483  0.55755663    -0.63000
O39         O  0.57915005  0.70471101  0.55341083    -0.57800
O40         O  0.75345071  0.78625263  0.55729734    -0.94500
O41         O  0.67867072  0.71422161  0.55583456    -0.92900
O42         O  0.57387940  0.80669430  0.55758847    -0.93300
O43         O  0.66369615  0.89567951  0.55825805    -0.92000
C44         C  0.72268333  0.74406278  0.54739795     1.17000
H45         H  0.55119657  0.73807167  0.59957046     0.33000
H46         H  0.72956008  0.91089122  0.60255168     0.43800
H47         H  0.72738289  0.73060401  0.59791681     0.37300
H48         H  0.67326223  0.78349634  0.68193735     0.33800
H49         H  0.61072672  0.92227234  0.58879170     0.25600
H50         H  0.76989140  0.92734660  0.69383053     0.31500
H51         H  0.78332050  0.76212726  0.68764856     0.37500
H52         H  0.56482113  0.83225161  0.55324992     0.31900
H53         H  0.57254115  0.67280327  0.54598595     0.30800
H54         H  0.59585368  0.61475098  0.57283539     0.32500
H55         H  0.74484998  0.68071311  0.62634586     0.31400
H56         H  0.69730996  0.89966212  0.55624618     0.35400
H57         H  0.76566735  0.87042719  0.54385869     0.28200
H58         H  0.51520967  0.70447029  0.68641262     0.32400
H59         H  0.70418202  0.67563571  0.68555282     0.35300
H60         H  0.54615518  0.69789972  0.55948752     0.27900
H61         H  0.78564635  0.91698727  0.56090338     0.40700
H62         H  0.71307798  0.96061221  0.63649004     0.30800
H63         H  0.62272649  0.92015317  0.61653324     0.38400
H64         H  0.68632485  0.65106273  0.62748418     0.30300
H65         H  0.75801292  0.87224159  0.69797495     0.30300
H66         H  0.55994087  0.69623075  0.69370080     0.30600
Zr67       Zr  0.79771864  0.55070263  0.35916151     2.17500
O68         O  0.73437420  0.49755026  0.32941549    -0.51800
O69         O  0.82113910  0.48769875  0.36697789    -0.75000
O70         O  0.83291590  0.55693034  0.31824217    -0.81800
O71         O  0.68840460  0.50929161  0.40403671    -0.83500
O72         O  0.90424767  0.63203430  0.31592065    -0.79100
O73         O  0.71456925  0.48547666  0.37043172    -0.90800
O74         O  0.87114446  0.51073698  0.40053643    -0.76700
O75         O  0.88405952  0.59350389  0.36969893    -0.86200
O76         O  0.80069326  0.54757270  0.40282139    -0.85900
O77         O  0.82859356  0.63364363  0.34318592    -0.72700
O78         O  0.75312676  0.59034680  0.37412064    -0.84800
Zr79       Zr  0.87626813  0.71497779  0.41344491     2.26400
Zr80       Zr  0.91515264  0.67653655  0.35450447     2.06300
Zr81       Zr  0.75780241  0.58840080  0.41787823     2.10000
Zr82       Zr  0.88679716  0.59197197  0.41343125     1.78800
O83         O  0.67681557  0.58282942  0.42239880    -0.93600
O84         O  0.96934741  0.60270783  0.40600088    -0.41400
O85         O  0.84398203  0.63230801  0.42962863    -0.78000
O86         O  0.92111695  0.67552015  0.39843154    -0.96700
O87         O  0.87256363  0.71742294  0.36980786    -0.90000
O88         O  0.79002600  0.67143386  0.40284605    -0.92900
C89         C  0.84685030  0.48019695  0.38320570     1.00900
C90         C  0.68174747  0.47847621  0.38670661     1.13800
C91         C  0.87117387  0.59031518  0.30642953     1.04600
O92         O  0.99184982  0.67285436  0.35137892    -0.95000
O93         O  0.98088958  0.75917421  0.36662952    -0.90800
O94         O  0.95745630  0.78310554  0.40113189    -0.83900
C95         C  0.98856880  0.79069143  0.38376231     1.11200
O96         O  0.72535651  0.63323495  0.32678908    -0.97000
Zr97       Zr  0.78639605  0.67410936  0.35949203     1.88900
O98         O  0.86052055  0.78232058  0.40382242    -0.73600
O99         O  0.93861690  0.73552439  0.32053141    -0.52900
O100        O  0.81260644  0.72318566  0.32174745    -0.97600
O101        O  0.70637888  0.66728536  0.36955340    -0.54800
O102        O  0.80842622  0.75828243  0.37106277    -0.74200
C103        C  0.83522443  0.79013101  0.38753281     0.98200
O104        O  0.93116546  0.75188635  0.44882468    -0.63000
O105        O  0.74596855  0.53456218  0.45293071    -0.57800
O106        O  0.83089740  0.71505340  0.45012449    -0.94500
O107        O  0.76052850  0.63889872  0.45271665    -0.92900
O108        O  0.85604968  0.54097795  0.45041543    -0.93300
O109        O  0.94342542  0.62787080  0.44818264    -0.92000
C110        C  0.78972634  0.68342217  0.46066056     1.17000
H111        H  0.78484064  0.51354158  0.40872187     0.33000
H112        H  0.95567993  0.69426146  0.40348552     0.43800
H113        H  0.77267171  0.68691590  0.41007429     0.37300
H114        H  0.82446124  0.63330924  0.32561982     0.33800
H115        H  0.97063219  0.57704939  0.41638139     0.25600
H116        H  0.96590231  0.73374714  0.31195456     0.31500
H117        H  0.79492909  0.74245204  0.32182263     0.37500
H118        H  0.87418288  0.52218820  0.45107862     0.31900
H119        H  0.76789862  0.55742485  0.46590847     0.30800
H120        H  0.66322538  0.56466416  0.43804483     0.32500
H121        H  0.71363864  0.69216295  0.38262884     0.31400
H122        H  0.93398347  0.65096432  0.45581291     0.35400
H123        H  0.91656588  0.72617515  0.46188793     0.28200
H124        H  0.74633935  0.47607249  0.32223000     0.32400
H125        H  0.71372969  0.65673129  0.32222542     0.35300
H126        H  0.71159848  0.52347563  0.45869260     0.27900
H127        H  0.96259012  0.75262410  0.44442875     0.40700
H128        H  0.98102987  0.63874574  0.34537890     0.30800
H129        H  0.96787830  0.59084938  0.38899268     0.38400
H130        H  0.68721596  0.63454448  0.37788822     0.30300
H131        H  0.90998629  0.72018699  0.30902821     0.30300
H132        H  0.73641027  0.52013796  0.31599826     0.30600
Zr133      Zr  0.42030128  0.17565183  0.35819044     2.17500
O134        O  0.47550277  0.17383038  0.32670083    -0.51800
O135        O  0.48413627  0.26147120  0.36752439    -0.75000
O136        O  0.41061019  0.20437858  0.31762485    -0.81800
O137        O  0.46217164  0.10655058  0.40109272    -0.83500
O138        O  0.33586053  0.20117666  0.31650637    -0.79100
O139        O  0.48321295  0.15278554  0.36616825    -0.90800
O140        O  0.45991284  0.28892077  0.40040701    -0.76700
O141        O  0.37835221  0.21895019  0.37031735    -0.86200
O142        O  0.42469471  0.17983397  0.40198791    -0.85900
O143        O  0.33665372  0.12417984  0.34295360    -0.72700
O144        O  0.38118980  0.09067835  0.37276704    -0.84800
Zr145      Zr  0.25778309  0.08782540  0.41411523     2.26400
Zr146      Zr  0.29466034  0.16775690  0.35577890     2.06300
Zr147      Zr  0.38390774  0.09550769  0.41667136     2.10000
Zr148      Zr  0.38077644  0.22105395  0.41412869     1.78800
O149        O  0.39319053  0.02250763  0.42251923    -0.93600
O150        O  0.36644025  0.29111712  0.40919413    -0.41400
O151        O  0.34092496  0.13737705  0.42990177    -0.78000
O152        O  0.29689049  0.17265905  0.39969161    -0.96700
O153        O  0.25438475  0.08361606  0.37042906    -0.90000
O154        O  0.30058003  0.04533198  0.40204033    -0.92900
C155        C  0.49094289  0.29498854  0.38339180     1.00900
C156        C  0.49125547  0.12823708  0.38277056     1.13800
C157        C  0.37688610  0.20956668  0.30638256     1.04600
O158        O  0.30333640  0.25043389  0.35504331    -0.95000
O159        O  0.21243978  0.15010902  0.36919703    -0.90800
O160        O  0.18936811  0.10187742  0.40356158    -0.83900
C161        C  0.18142285  0.12598686  0.38658750     1.11200
O162        O  0.33679051  0.02387452  0.32442496    -0.97000
Zr163      Zr  0.29696270  0.04099676  0.35869047     1.88900
O164        O  0.18938198  0.00606389  0.40382641    -0.73600
O165        O  0.23348734  0.13883223  0.32260042    -0.52900
O166        O  0.24673382  0.02051749  0.32149501    -0.97600
O167        O  0.30388920  0.96736910  0.36764468    -0.54800
O168        O  0.21261607  0.97899412  0.37045443    -0.74200
C169        C  0.18094779  0.97376634  0.38708823     0.98200
O170        O  0.22428391  0.10667015  0.45044368    -0.63000
O171        O  0.43692414  0.13709695  0.45197475    -0.57800
O172        O  0.25726622  0.03906627  0.44970841    -0.94500
O173        O  0.33278975  0.04355122  0.45077224    -0.92900
O174        O  0.43608943  0.24350487  0.44954798    -0.93300
O175        O  0.34500553  0.23723224  0.45033766    -0.92000
C176        C  0.28866221  0.02812539  0.45938184     1.17000
H177        H  0.45898492  0.19786874  0.40753652     0.33000
H178        H  0.27846633  0.18833393  0.40532388     0.43800
H179        H  0.28508096  0.01202010  0.40882898     0.37300
H180        H  0.33601793  0.12062209  0.32535328     0.33800
H181        H  0.39465617  0.31916404  0.41789102     0.25600
H182        H  0.24006869  0.16935960  0.31356391     0.31500
H183        H  0.22214856  0.03134358  0.32488053     0.37500
H184        H  0.45140010  0.28019611  0.45100519     0.31900
H185        H  0.43508016  0.10966159  0.46215451     0.30800
H186        H  0.41595753  0.03086532  0.43675469     0.32500
H187        H  0.27463438  0.94560592  0.37803251     0.31400
H188        H  0.32699263  0.20467622  0.45893501     0.35400
H189        H  0.25067529  0.11671023  0.46306386     0.28200
H190        H  0.49505380  0.20835252  0.32025645     0.32400
H191        H  0.31430619  0.98828768  0.32027262     0.35300
H192        H  0.47142400  0.15442793  0.44539476     0.27900
H193        H  0.22466183  0.13809024  0.44643719     0.40700
H194        H  0.33506383  0.27179408  0.34619404     0.30800
H195        H  0.37306788  0.30024961  0.39161838     0.38400
H196        H  0.33288496  0.97952081  0.37886050     0.30300
H197        H  0.24389159  0.12084680  0.31121219     0.30300
H198        H  0.45364859  0.15357651  0.31302488     0.30600
Zr199      Zr  0.21278196  0.75745659  0.64934934     2.17500
O200        O  0.27307286  0.76608727  0.68068700    -0.51800
O201        O  0.18929018  0.67132424  0.64041553    -0.75000
O202        O  0.17323050  0.72486737  0.68929980    -0.81800
O203        O  0.32204215  0.82201252  0.60515194    -0.83500
O204        O  0.10113793  0.72718855  0.69017791    -0.79100
O205        O  0.29500721  0.77203862  0.63891638    -0.90800
O206        O  0.14190231  0.64705384  0.60591551    -0.76700
O207        O  0.12756052  0.71447286  0.63696484    -0.86200
O208        O  0.21332380  0.75556628  0.60558387    -0.85900
O209        O  0.18029952  0.80796811  0.66522668    -0.72700
O210        O  0.25855424  0.84339412  0.63606148    -0.84800
Zr211      Zr  0.13861503  0.84747518  0.59483762     2.26400
Zr212      Zr  0.09483322  0.76479153  0.65201247     2.06300
Zr213      Zr  0.25772122  0.84078911  0.59211765     2.10000
Zr214      Zr  0.12829730  0.71420058  0.59321929     1.78800
O215        O  0.33666193  0.91931969  0.59405383    -0.93600
O216        O  0.04440927  0.64278287  0.59852607    -0.41400
O217        O  0.17249383  0.79878466  0.57874809    -0.78000
O218        O  0.09250513  0.76194510  0.60806392    -0.96700
O219        O  0.13834932  0.84973835  0.63848515    -0.90000
O220        O  0.22395437  0.89000646  0.60720066    -0.92900
C221        C  0.16447522  0.63924745  0.62361171     1.00900
C222        C  0.32767717  0.79661928  0.62234138     1.13800
C223        C  0.13363454  0.71854532  0.70028704     1.04600
O224        O  0.01902447  0.68320469  0.65139352    -0.95000
O225        O  0.03073875  0.78372426  0.63977271    -0.90800
O226        O  0.05720159  0.83478289  0.60636798    -0.83900
C227        C  0.02493490  0.80987734  0.62314092     1.11200
O228        O  0.28266902  0.91104243  0.68420450    -0.97000
Zr229      Zr  0.22337125  0.89235277  0.65072110     1.88900
O230        O  0.15431910  0.93005098  0.60485101    -0.73600
O231        O  0.06667060  0.79483812  0.68629030    -0.52900
O232        O  0.19161609  0.90588083  0.68915551    -0.97600
O233        O  0.30290410  0.96882280  0.64394411    -0.54800
O234        O  0.19953305  0.95433776  0.64005639    -0.74200
C235        C  0.17557311  0.96093445  0.62247783     0.98200
O236        O  0.08480935  0.83060901  0.55911387    -0.63000
O237        O  0.28041586  0.81264800  0.55516411    -0.57800
O238        O  0.18550463  0.89412338  0.55875887    -0.94500
O239        O  0.25560922  0.88812066  0.55639053    -0.92900
O240        O  0.16419724  0.69924676  0.55672218    -0.93300
O241        O  0.07529151  0.69459018  0.55704020    -0.92000
C242        C  0.22646103  0.90344618  0.54817338     1.17000
H243        H  0.22940966  0.73772042  0.59967845     0.33000
H244        H  0.05836386  0.74664890  0.60239187     0.43800
H245        H  0.24173891  0.92341286  0.60050754     0.37300
H246        H  0.18266215  0.81003070  0.68288886     0.33800
H247        H  0.04390538  0.61594196  0.58845718     0.25600
H248        H  0.04110284  0.76439267  0.69483554     0.31500
H249        H  0.20446750  0.94230861  0.68972139     0.37500
H250        H  0.14641750  0.66245271  0.55498842     0.31900
H251        H  0.31718750  0.83414111  0.55395975     0.30800
H252        H  0.35210198  0.92269463  0.57773073     0.32500
H253        H  0.29667746  0.98667146  0.63053559     0.31400
H254        H  0.05605501  0.71187096  0.55967042     0.35400
H255        H  0.09963408  0.81961363  0.54618507     0.28200
H256        H  0.26141195  0.73183712  0.68684151     0.32400
H257        H  0.29006298  0.94386450  0.69077145     0.35300
H258        H  0.27501786  0.77915709  0.55936352     0.27900
H259        H  0.05312705  0.79989817  0.56330217     0.40700
H260        H  0.02837781  0.66043383  0.65956287     0.30800
H261        H  0.04358540  0.63171775  0.61567287     0.38400
H262        H  0.32473462  0.95753106  0.63652264     0.30300
H263        H  0.09539823  0.81015614  0.69773513     0.30300
H264        H  0.26821106  0.78390069  0.69452345     0.30600
Zr265      Zr  0.20936820  0.37981596  0.64866067     2.17500
O266        O  0.20276376  0.43295047  0.67967192    -0.51800
O267        O  0.29560754  0.44338086  0.63937596    -0.75000
O268        O  0.24018890  0.37252530  0.68903485    -0.81800
O269        O  0.14144968  0.42179174  0.60475071    -0.83500
O270        O  0.23804574  0.29834440  0.69052972    -0.79100
O271        O  0.18871499  0.44367206  0.63936666    -0.90800
O272        O  0.31922922  0.42072507  0.60461991    -0.76700
O273        O  0.25305097  0.33848870  0.63623844    -0.86200
O274        O  0.21160114  0.38264944  0.60485249    -0.85900
O275        O  0.15923332  0.29681160  0.66482982    -0.72700
O276        O  0.12360556  0.33874449  0.63519775    -0.84800
Zr277      Zr  0.12094303  0.21465426  0.59441405     2.26400
Zr278      Zr  0.20330213  0.25556755  0.65176765     2.06300
Zr279      Zr  0.12663216  0.34037168  0.59128463     2.10000
Zr280      Zr  0.25309261  0.33933361  0.59239486     1.78800
O281        O  0.05096436  0.34594386  0.58870135    -0.93600
O282        O  0.32759975  0.33184384  0.59626061    -0.41400
O283        O  0.16866151  0.29741846  0.57777877    -0.78000
O284        O  0.20648972  0.25575729  0.60775890    -0.96700
O285        O  0.11847742  0.21296777  0.63803879    -0.90000
O286        O  0.07807332  0.25711491  0.60661695    -0.92900
C287        C  0.32742423  0.45098535  0.62231721     1.00900
C288        C  0.16468611  0.45188304  0.62255893     1.13800
C289        C  0.24609899  0.33939302  0.70043087     1.04600
O290        O  0.28688526  0.26687510  0.64929381    -0.95000
O291        O  0.18461120  0.17220895  0.64101164    -0.90800
O292        O  0.13608601  0.14748615  0.60677268    -0.83900
C293        C  0.16003929  0.14030889  0.62417025     1.11200
O294        O  0.05375052  0.29167493  0.68393425    -0.97000
Zr295      Zr  0.07536459  0.25473586  0.65004842     1.88900
O296        O  0.03912942  0.14748519  0.60544929    -0.73600
O297        O  0.17821714  0.19654162  0.68581747    -0.52900
O298        O  0.06275544  0.20596932  0.68729898    -0.97600
O299        O  0.99921098  0.25787638  0.64231511    -0.54800
O300        O  0.01366631  0.16990794  0.63963072    -0.74200
C301        C  0.00768085  0.13874052  0.62271767     0.98200
O302        O  0.13511219  0.17405910  0.55942647    -0.63000
O303        O  0.16290074  0.39047214  0.55445338    -0.57800
O304        O  0.07260824  0.21400183  0.55865618    -0.94500
O305        O  0.07515615  0.28860147  0.55747452    -0.92900
O306        O  0.26737224  0.39000391  0.55572771    -0.93300
O307        O  0.27110357  0.30307121  0.55698053    -0.92000
C308        C  0.06093329  0.24478191  0.54892983     1.17000
H309        H  0.22896429  0.41666183  0.59888913     0.33000
H310        H  0.22235407  0.23743109  0.60224357     0.43800
H311        H  0.04450229  0.24109469  0.60012339     0.37300
H312        H  0.15643153  0.29680591  0.68246233     0.33800
H313        H  0.35312002  0.35915840  0.58596828     0.25600
H314        H  0.20956267  0.20431644  0.69438774     0.31500
H315        H  0.02605852  0.18438361  0.68883317     0.37500
H316        H  0.30373361  0.40588330  0.55258821     0.31900
H317        H  0.16461497  0.36730233  0.54251217     0.30800
H318        H  0.05597250  0.36713581  0.57411894     0.32500
H319        H  0.97763734  0.22818660  0.63219627     0.31400
H320        H  0.23785094  0.27877612  0.55029452     0.35400
H321        H  0.14106186  0.19639902  0.54522554     0.28200
H322        H  0.23710022  0.45460351  0.68596472     0.32400
H323        H  0.01990913  0.26573518  0.68927654     0.35300
H324        H  0.13645818  0.39648030  0.54794274     0.27900
H325        H  0.16815650  0.17722261  0.56248868     0.40700
H326        H  0.28784364  0.24540897  0.66254014     0.30800
H327        H  0.33922703  0.34220147  0.61331168     0.38400
H328        H  0.00968565  0.28651163  0.63100258     0.30300
H329        H  0.16030236  0.20678165  0.69735442     0.30300
H330        H  0.18382105  0.41057615  0.69349294     0.30600
Zr331      Zr  0.79587422  0.17325486  0.35866813     2.17500
O332        O  0.80279364  0.23269609  0.32713301    -0.51800
O333        O  0.70894473  0.14856582  0.36622370    -0.75000
O334        O  0.76666665  0.13606949  0.31823700    -0.81800
O335        O  0.86258860  0.28216262  0.40285746    -0.83500
O336        O  0.77177148  0.06569206  0.31622799    -0.79100
O337        O  0.81461090  0.25698597  0.36845450    -0.90800
O338        O  0.68157411  0.09755357  0.39939296    -0.76700
O339        O  0.75249752  0.08740319  0.36991015    -0.86200
O340        O  0.78977000  0.17113155  0.40234443    -0.85900
O341        O  0.84825166  0.14265521  0.34333815    -0.72700
O342        O  0.88017269  0.21835470  0.37399043    -0.84800
Zr343      Zr  0.88166272  0.09497046  0.41392116     2.26400
Zr344      Zr  0.80444115  0.05631386  0.35516304     2.06300
Zr345      Zr  0.87339167  0.21385592  0.41777494     2.10000
Zr346      Zr  0.74850065  0.08552657  0.41363883     1.78800
O347        O  0.94876956  0.29434651  0.42403976    -0.93600
O348        O  0.67784122  0.00144043  0.40835651    -0.41400
O349        O  0.83168275  0.12794906  0.42977003    -0.78000
O350        O  0.79717270  0.05057703  0.39900745    -0.96700
O351        O  0.88817656  0.09898145  0.37040453    -0.90000
O352        O  0.92408273  0.18128082  0.40322897    -0.92900
C353        C  0.67523031  0.12176036  0.38205383     1.00900
C354        C  0.83951076  0.28934668  0.38504302     1.13800
C355        C  0.76226056  0.09794992  0.30666699     1.04600
O356        O  0.72166764  0.98295227  0.35123699    -0.95000
O357        O  0.81768910  0.98879523  0.36784691    -0.90800
O358        O  0.86576173  0.01240496  0.40219460    -0.83900
C359        C  0.84114329  0.98086710  0.38511937     1.11200
O360        O  0.95432851  0.24868926  0.32821362    -0.97000
Zr361      Zr  0.93080188  0.18508078  0.35994898     1.88900
O362        O  0.96481300  0.10997703  0.40386219    -0.73600
O363        O  0.83923460  0.03021321  0.32208635    -0.52900
O364        O  0.94774431  0.15523538  0.32184313    -0.97600
O365        O  0.00464255  0.26478026  0.37000212    -0.54800
O366        O  0.99305068  0.16302069  0.37138502    -0.74200
C367        C  0.99804444  0.13567760  0.38757824     0.98200
O368        O  0.86201821  0.04102422  0.44990464    -0.63000
O369        O  0.82910910  0.22490250  0.45190384    -0.57800
O370        O  0.92688802  0.13999323  0.45051855    -0.94500
O371        O  0.92007449  0.20970411  0.45310031    -0.92900
O372        O  0.72774727  0.12055912  0.44863117    -0.93300
O373        O  0.72936303  0.03389068  0.45029002    -0.92000
C374        C  0.93559215  0.18063864  0.46114773     1.17000
H375        H  0.77144992  0.18695277  0.40794844     0.33000
H376        H  0.78091700  0.01608622  0.40420268     0.43800
H377        H  0.95696673  0.19873550  0.41050469     0.37300
H378        H  0.85220612  0.14658369  0.32576434     0.33800
H379        H  0.64994169  0.00149217  0.41724134     0.25600
H380        H  0.81014531  0.00637647  0.31216524     0.31500
H381        H  0.98408489  0.16742276  0.32216566     0.37500
H382        H  0.69153094  0.09781882  0.45135292     0.31900
H383        H  0.82396302  0.19850658  0.46381402     0.30800
H384        H  0.94146153  0.30872717  0.43858712     0.32500
H385        H  0.02311261  0.25704791  0.38247064     0.31400
H386        H  0.75313023  0.02130549  0.44984379     0.35400
H387        H  0.84971326  0.05559251  0.46233720     0.28200
H388        H  0.76883077  0.21930557  0.32018144     0.32400
H389        H  0.98659737  0.25440854  0.32158785     0.35300
H390        H  0.85418972  0.25642069  0.45977999     0.27900
H391        H  0.83180097  0.00924813  0.44536479     0.40700
H392        H  0.72475224  0.96401693  0.33738642     0.30800
H393        H  0.66874233  0.99966612  0.39080814     0.38400
H394        H  0.99144649  0.28333238  0.37912846     0.30300
H395        H  0.85734287  0.06009072  0.31148943     0.30300
H396        H  0.82306277  0.23016689  0.31374887     0.30600
Zr397      Zr  0.74969202  0.83249850  0.91401668     2.17500
O398        O  0.79270460  0.88776332  0.94844842    -0.51800
O399        O  0.81646949  0.81579137  0.90484010    -0.75000
O400        O  0.74616986  0.78579270  0.95086214    -0.81800
O401        O  0.79295091  0.94178513  0.86973609    -0.83500
O402        O  0.67036080  0.71505690  0.95206099    -0.79100
O403        O  0.81475417  0.91730467  0.90470180    -0.90800
O404        O  0.79143055  0.76107555  0.87324997    -0.76700
O405        O  0.70588129  0.74682045  0.90273868    -0.86200
O406        O  0.75425409  0.83069036  0.87043402    -0.85900
O407        O  0.66646052  0.80041273  0.92947601    -0.72700
O408        O  0.71119087  0.87794968  0.89885842    -0.84800
Zr409      Zr  0.58680049  0.75729227  0.85795119     2.26400
Zr410      Zr  0.62210935  0.71486645  0.91674120     2.06300
Zr411      Zr  0.71420385  0.87413825  0.85508855     2.10000
Zr412      Zr  0.71005204  0.74511747  0.85932957     1.78800
O413        O  0.70584282  0.94799674  0.85125910    -0.93600
O414        O  0.69841695  0.66273482  0.86810347    -0.41400
O415        O  0.67027970  0.78847843  0.84316519    -0.78000
O416        O  0.62523123  0.71116084  0.87285300    -0.96700
O417        O  0.58260785  0.75883369  0.90153560    -0.90000
O418        O  0.63091700  0.84301039  0.86939482    -0.92900
C419        C  0.82347543  0.78851294  0.88955160     1.00900
C420        C  0.82255651  0.94948868  0.88783199     1.13800
C421        C  0.71403527  0.74427594  0.96092187     1.04600
O422        O  0.61697023  0.63375896  0.91843999    -0.95000
O423        O  0.53903772  0.65077271  0.90419243    -0.90800
O424        O  0.51633793  0.67774323  0.87037794    -0.83900
C425        C  0.50791053  0.64527661  0.88714176     1.11200
O426        O  0.66079702  0.89265876  0.95057092    -0.97000
Zr427      Zr  0.62717731  0.84406143  0.91310380     1.88900
O428        O  0.52329476  0.78017547  0.86548357    -0.73600
O429        O  0.56922472  0.70046651  0.95254424    -0.52900
O430        O  0.56670694  0.80570292  0.94629692    -0.97600
O431        O  0.64272646  0.92908055  0.90883740    -0.54800
O432        O  0.54847530  0.83238568  0.89820357    -0.74200
C433        C  0.51719262  0.80756150  0.88120880     0.98200
O434        O  0.54607075  0.70106526  0.82325318    -0.63000
O435        O  0.77496362  0.89987832  0.82178121    -0.57800
O436        O  0.59448791  0.79734548  0.81831955    -0.94500
O437        O  0.67379095  0.86258975  0.81549344    -0.92900
O438        O  0.76436507  0.77791951  0.82357753    -0.93300
O439        O  0.67711012  0.69060539  0.82372556    -0.92000
C440        C  0.63054816  0.83303396  0.80630648     1.17000
H441        H  0.78849318  0.84667113  0.86485341     0.33000
H442        H  0.60618593  0.67692603  0.86738705     0.43800
H443        H  0.61656230  0.86125923  0.86187621     0.37300
H444        H  0.66707833  0.80261554  0.94717989     0.33800
H445        H  0.72518115  0.66148063  0.85872793     0.25600
H446        H  0.56401904  0.66875304  0.95969636     0.31500
H447        H  0.54702499  0.82294392  0.94619884     0.37500
H448        H  0.78298529  0.75960127  0.82321699     0.31900
H449        H  0.78646847  0.93569660  0.81909074     0.30800
H450        H  0.72372581  0.96427876  0.83588843     0.32500
H451        H  0.61291254  0.92817265  0.91606651     0.31400
H452        H  0.65356987  0.69953056  0.81606488     0.35400
H453        H  0.57288919  0.70969869  0.81102766     0.28200
H454        H  0.81761002  0.87870818  0.95408574     0.32400
H455        H  0.63381073  0.89752802  0.95729600     0.35300
H456        H  0.80432338  0.89950261  0.82880081     0.27900
H457        H  0.53774378  0.66726767  0.82879001     0.40700
H458        H  0.60709902  0.61991714  0.90167922     0.30800
H459        H  0.70847941  0.66433047  0.88549414     0.38400
H460        H  0.63991268  0.93351267  0.89102080     0.30300
H461        H  0.59081302  0.72635283  0.96454825     0.30300
H462        H  0.76764005  0.87669992  0.96179625     0.30600
Zr463      Zr  0.86543663  0.71302263  0.09468557     2.17500
O464        O  0.91795561  0.74951089  0.05851133    -0.51800
O465        O  0.85192803  0.78135013  0.10497273    -0.75000
O466        O  0.81681457  0.71374498  0.05982632    -0.81800
O467        O  0.97757701  0.75226062  0.13631100    -0.83500
O468        O  0.74485905  0.63893386  0.05831240    -0.79100
O469        O  0.95061770  0.77788221  0.10355041    -0.90800
O470        O  0.79893132  0.75670010  0.13739383    -0.76700
O471        O  0.78030367  0.67151363  0.10734464    -0.86200
O472        O  0.86657996  0.71662055  0.13832884    -0.85900
O473        O  0.82937193  0.62988596  0.07869108    -0.72700
O474        O  0.90972136  0.67207785  0.10788760    -0.84800
Zr475      Zr  0.78854643  0.54931742  0.15023374     2.26400
Zr476      Zr  0.74458097  0.58793176  0.09272516     2.06300
Zr477      Zr  0.90904026  0.67430320  0.15169225     2.10000
Zr478      Zr  0.78159592  0.67474697  0.15081954     1.78800
O479        O  0.98052240  0.66160363  0.15410910    -0.93600
O480        O  0.69918685  0.66548043  0.14522008    -0.41400
O481        O  0.82420041  0.63301686  0.16529538    -0.78000
O482        O  0.74384233  0.59030230  0.13671534    -0.96700
O483        O  0.78725099  0.54603325  0.10653819    -0.90000
O484        O  0.87348078  0.59074834  0.13714560    -0.92900
C485        C  0.82594715  0.78874127  0.12098451     1.00900
C486        C  0.98420371  0.78367481  0.11923632     1.13800
C487        C  0.77462267  0.68315892  0.04998857     1.04600
O488        O  0.66406354  0.58416401  0.09154379    -0.95000
O489        O  0.67864075  0.50630544  0.10614420    -0.90800
O490        O  0.70678369  0.48132106  0.13871900    -0.83900
C491        C  0.67325958  0.47461362  0.12286150     1.11200
O492        O  0.92228926  0.62263872  0.05651562    -0.97000
Zr493      Zr  0.87176373  0.58807268  0.09342177     1.88900
O494        O  0.80819249  0.48400888  0.14103924    -0.73600
O495        O  0.72631345  0.53365390  0.05727285    -0.52900
O496        O  0.83228461  0.53277548  0.05856868    -0.97600
O497        O  0.95520543  0.59929803  0.09804860    -0.54800
O498        O  0.85519934  0.50656723  0.10635422    -0.74200
C499        C  0.83181804  0.47596182  0.12389218     0.98200
O500        O  0.73172893  0.50848970  0.18489062    -0.63000
O501        O  0.93923188  0.73479049  0.18510795    -0.57800
O502        O  0.83022105  0.55578066  0.18941547    -0.94500
O503        O  0.89881691  0.63310578  0.19086765    -0.92900
O504        O  0.81592192  0.72908244  0.18633489    -0.93300
O505        O  0.73013881  0.63940848  0.18730362    -0.92000
C506        C  0.86823111  0.59086094  0.20067283     1.17000
H507        H  0.88386026  0.75071481  0.14407716     0.33000
H508        H  0.70986909  0.57231011  0.14270921     0.43800
H509        H  0.89115961  0.57510847  0.14392612     0.37300
H510        H  0.83043291  0.63081185  0.06095704     0.33800
H511        H  0.70035162  0.69331182  0.15469314     0.25600
H512        H  0.69221260  0.52525298  0.05218750     0.31500
H513        H  0.84999843  0.51372525  0.05687247     0.37500
H514        H  0.83629245  0.71711755  0.19483283     0.31900
H515        H  0.97333679  0.74113416  0.18866289     0.30800
H516        H  0.00401636  0.68778673  0.16549156     0.32500
H517        H  0.95237348  0.57675369  0.11165581     0.31400
H518        H  0.72706708  0.60616131  0.18923722     0.35400
H519        H  0.74393537  0.53320136  0.19837884     0.28200
H520        H  0.91362991  0.77801513  0.05375347     0.32400
H521        H  0.93078514  0.59732691  0.05101131     0.35300
H522        H  0.94441591  0.76642787  0.17786883     0.27900
H523        H  0.69955496  0.50601317  0.18031609     0.40700
H524        H  0.65424445  0.58228919  0.10897889     0.30800
H525        H  0.69852382  0.67459066  0.12784133     0.38400
H526        H  0.97552050  0.63330492  0.10490883     0.30300
H527        H  0.74833376  0.55567557  0.04405155     0.30300
H528        H  0.90171589  0.72462724  0.04525322     0.30600
Zr529      Zr  0.25142606  0.08574708  0.09266674     2.17500
O530        O  0.21415745  0.10366684  0.05749628    -0.51800
O531        O  0.18252525  0.00278540  0.10115880    -0.75000
O532        O  0.25250433  0.03810454  0.05727393    -0.81800
O533        O  0.20846694  0.15056674  0.13713427    -0.83500
O534        O  0.32789276  0.04225896  0.05590489    -0.79100
O535        O  0.18600868  0.10462038  0.10218237    -0.90800
O536        O  0.20673213  0.97227429  0.13290038    -0.76700
O537        O  0.29356374  0.04240357  0.10426133    -0.86200
O538        O  0.24614795  0.07922972  0.13629534    -0.85900
O539        O  0.33510608  0.13557945  0.07728368    -0.72700
O540        O  0.29114457  0.16970731  0.10786296    -0.84800
Zr541      Zr  0.41262589  0.16903485  0.14956201     2.26400
Zr542      Zr  0.37769980  0.09274829  0.09042472     2.06300
Zr543      Zr  0.28752641  0.16269784  0.15160196     2.10000
Zr544      Zr  0.28820722  0.03579307  0.14759456     1.78800
O545        O  0.29547805  0.24503251  0.15346618    -0.93600
O546        O  0.29953379  0.96483898  0.13921053    -0.41400
O547        O  0.32872100  0.11855715  0.16408223    -0.78000
O548        O  0.37327701  0.08486213  0.13428579    -0.96700
O549        O  0.41803572  0.17593087  0.10593499    -0.90000
O550        O  0.37122073  0.21319673  0.13763610    -0.92900
C551        C  0.17503114  0.96825195  0.11651623     1.00900
C552        C  0.17850669  0.12878817  0.11918581     1.13800
C553        C  0.28368672  0.02721382  0.04748885     1.04600
O554        O  0.38316374  0.01705446  0.08839234    -0.95000
O555        O  0.46090752  0.11211402  0.10321614    -0.90800
O556        O  0.48206554  0.15795432  0.13816800    -0.83900
C557        C  0.49126639  0.13569419  0.12088700     1.11200
O558        O  0.33753651  0.23739260  0.05926222    -0.97000
Zr559      Zr  0.37544500  0.21840778  0.09388455     1.88900
O560        O  0.47863525  0.25411651  0.14190831    -0.73600
O561        O  0.43133178  0.13046830  0.05475564    -0.52900
O562        O  0.42940558  0.23635696  0.05818901    -0.97600
O563        O  0.36967537  0.29362440  0.09898645    -0.54800
O564        O  0.45657145  0.28188814  0.10816054    -0.74200
C565        C  0.48677357  0.28732210  0.12557640     0.98200
O566        O  0.45075024  0.14932025  0.18403954    -0.63000
O567        O  0.22832455  0.13211373  0.18559617    -0.57800
O568        O  0.40631094  0.20327500  0.18885594    -0.94500
O569        O  0.32785919  0.19127449  0.19122660    -0.92900
O570        O  0.23263090  0.01122555  0.18292932    -0.93300
O571        O  0.32041077  0.01419092  0.18353939    -0.92000
C572        C  0.37074378  0.20421191  0.20062183     1.17000
H573        H  0.21183241  0.06150657  0.14179955     0.33000
H574        H  0.39153224  0.06887055  0.13982349     0.43800
H575        H  0.38643445  0.24580084  0.14516453     0.37300
H576        H  0.33466698  0.13720858  0.05956860     0.33800
H577        H  0.26985121  0.93583862  0.14655235     0.25600
H578        H  0.43427442  0.10294246  0.04725663     0.31500
H579        H  0.45415992  0.27246605  0.05928186     0.37500
H580        H  0.24152907  0.04304494  0.19123058     0.31900
H581        H  0.21691899  0.15670669  0.18716889     0.30800
H582        H  0.30602975  0.25655102  0.17050902     0.32500
H583        H  0.40000278  0.32049307  0.09091336     0.31400
H584        H  0.35434114  0.04322495  0.18595905     0.35400
H585        H  0.42569385  0.13704315  0.19741744     0.28200
H586        H  0.18612070  0.07080924  0.05236231     0.32400
H587        H  0.36494951  0.26756897  0.05135828     0.35300
H588        H  0.19877950  0.10143401  0.17942148     0.27900
H589        H  0.45163390  0.11902152  0.17906819     0.40700
H590        H  0.39001251  0.01111786  0.10545591     0.30800
H591        H  0.29447305  0.95951320  0.12127969     0.38400
H592        H  0.37529822  0.30153377  0.11669955     0.30300
H593        H  0.41084751  0.13699669  0.04298414     0.30300
H594        H  0.23917194  0.11374865  0.04417488     0.30600
Zr595      Zr  0.13497958  0.84705662  0.91295440     2.17500
O596        O  0.08009208  0.83134311  0.94804531    -0.51800
O597        O  0.15092843  0.93061292  0.90438637    -0.75000
O598        O  0.18254026  0.89202386  0.94933151    -0.81800
O599        O  0.02420159  0.77542674  0.87049362    -0.83500
O600        O  0.25597441  0.89215034  0.94946412    -0.79100
O601        O  0.04972230  0.82676154  0.90356279    -0.90800
O602        O  0.20389056  0.96026502  0.87200799    -0.76700
O603        O  0.22001192  0.89193079  0.90007007    -0.86200
O604        O  0.13360122  0.85062814  0.86925136    -0.85900
O605        O  0.17130054  0.79952618  0.92818745    -0.72700
O606        O  0.09132464  0.76204265  0.89904534    -0.84800
Zr607      Zr  0.21289705  0.76340985  0.85619236     2.26400
Zr608      Zr  0.25616160  0.84392673  0.91413078     2.06300
Zr609      Zr  0.09217401  0.76606907  0.85515060     2.10000
Zr610      Zr  0.21837450  0.89522974  0.85656283     1.78800
O611        O  0.02056937  0.68167450  0.85346721    -0.93600
O612        O  0.30133399  0.96844869  0.86079821    -0.41400
O613        O  0.17677956  0.81127567  0.84155470    -0.78000
O614        O  0.25678029  0.84873332  0.87014739    -0.96700
O615        O  0.21416905  0.75960883  0.89988723    -0.90000
O616        O  0.12800650  0.71812634  0.86919993    -0.92900
C617        C  0.17777939  0.96504669  0.88891013     1.00900
C618        C  0.01671602  0.79938847  0.88752581     1.13800
C619        C  0.22536516  0.90431191  0.95878316     1.04600
O620        O  0.33640860  0.92112896  0.91582128    -0.95000
O621        O  0.32341663  0.83097602  0.90035496    -0.90800
O622        O  0.29537369  0.77909913  0.86743452    -0.83900
C623        C  0.32890776  0.80540909  0.88336452     1.11200
O624        O  0.07793304  0.69579079  0.94971030    -0.97000
Zr625      Zr  0.12946869  0.71567294  0.91289942     1.88900
O626        O  0.19487742  0.67848166  0.86429522    -0.73600
O627        O  0.27460126  0.80665108  0.94911862    -0.52900
O628        O  0.16702415  0.69889442  0.94833868    -0.97600
O629        O  0.04618955  0.64296516  0.90797816    -0.54800
O630        O  0.14745378  0.65238363  0.89879014    -0.74200
C631        C  0.17100553  0.64589490  0.88112914     0.98200
O632        O  0.26821012  0.78312912  0.82067865    -0.63000
O633        O  0.06084166  0.79502700  0.82161828    -0.57800
O634        O  0.17081926  0.72728217  0.81729008    -0.94500
O635        O  0.10196791  0.73543516  0.81563531    -0.92900
O636        O  0.17977994  0.91405394  0.82228700    -0.93300
O637        O  0.26820880  0.91482935  0.81924184    -0.92000
C638        C  0.13274563  0.72398236  0.80592214     1.17000
H639        H  0.11610458  0.86744631  0.86379527     0.33000
H640        H  0.29074000  0.86532489  0.86410257     0.43800
H641        H  0.11065702  0.68504472  0.86216400     0.37300
H642        H  0.17023536  0.79854501  0.94591989     0.33800
H643        H  0.29994847  0.99483471  0.85108667     0.25600
H644        H  0.30772433  0.83312994  0.95496789     0.31500
H645        H  0.15205223  0.66213406  0.94868171     0.37500
H646        H  0.19708457  0.95099217  0.82163199     0.31900
H647        H  0.02461973  0.77051122  0.82074935     0.30800
H648        H  0.99983788  0.68255231  0.83982401     0.32500
H649        H  0.04890473  0.62429744  0.89390624     0.31400
H650        H  0.25282311  0.88316715  0.80989322     0.35400
H651        H  0.25592814  0.79808360  0.80838239     0.28200
H652        H  0.08928382  0.86468353  0.95461253     0.32400
H653        H  0.06760473  0.66077564  0.95394417     0.35300
H654        H  0.06274655  0.82607523  0.82766293     0.27900
H655        H  0.30088407  0.81167207  0.82566433     0.40700
H656        H  0.34426971  0.93217555  0.89851483     0.30800
H657        H  0.30295084  0.97905480  0.87806731     0.38400
H658        H  0.02533473  0.65664900  0.90182406     0.30300
H659        H  0.25100791  0.80395568  0.96210964     0.30300
H660        H  0.09137319  0.81607998  0.96066975     0.30600
Zr661      Zr  0.12014528  0.21867915  0.91406974     2.17500
O662        O  0.13322260  0.18007007  0.95024113    -0.51800
O663        O  0.03794419  0.15007671  0.90406718    -0.75000
O664        O  0.07161239  0.22042866  0.94897221    -0.81800
O665        O  0.18959201  0.17702241  0.87196804    -0.83500
O666        O  0.07587712  0.29574854  0.94984891    -0.79100
O667        O  0.14128891  0.15411399  0.90623326    -0.90800
O668        O  0.00812811  0.17535018  0.87250658    -0.76700
O669        O  0.07716056  0.26067118  0.90137071    -0.86200
O670        O  0.11593632  0.21373285  0.87042036    -0.85900
O671        O  0.16951815  0.30232597  0.92937350    -0.72700
O672        O  0.20485979  0.25787241  0.89971784    -0.84800
Zr673      Zr  0.20728665  0.38042331  0.85705200     2.26400
Zr674      Zr  0.12715663  0.34464282  0.91520913     2.06300
Zr675      Zr  0.20020647  0.25471677  0.85595828     2.10000
Zr676      Zr  0.07337576  0.25597809  0.85791298     1.78800
O677        O  0.28348559  0.26493573  0.85390045    -0.93600
O678        O  0.00188805  0.26803402  0.86331714    -0.41400
O679        O  0.15716914  0.29651604  0.84263439    -0.78000
O680        O  0.12207026  0.34087103  0.87128241    -0.96700
O681        O  0.21124825  0.38457999  0.90077593    -0.90000
O682        O  0.25048601  0.33847818  0.86987633    -0.92900
C683        C  0.00365518  0.14315802  0.88866937     1.00900
C684        C  0.16707945  0.14707150  0.88989888     1.13800
C685        C  0.06050659  0.25166284  0.95846284     1.04600
O686        O  0.05143836  0.35030894  0.91591426    -0.95000
O687        O  0.14534418  0.42659599  0.90129147    -0.90800
O688        O  0.19507231  0.44971354  0.86759452    -0.83900
C689        C  0.17033179  0.45766531  0.88411395     1.11200
O690        O  0.26612326  0.30117614  0.94907050    -0.97000
Zr691      Zr  0.25319150  0.34188578  0.91367426     1.88900
O692        O  0.29180164  0.44696715  0.86632916    -0.73600
O693        O  0.16336333  0.39921714  0.95060380    -0.52900
O694        O  0.27405458  0.39684083  0.94905052    -0.97600
O695        O  0.32745606  0.33391919  0.90941046    -0.54800
O696        O  0.31691160  0.42378130  0.90059654    -0.74200
C697        C  0.32364949  0.45484361  0.88341539     0.98200
O698        O  0.18994536  0.41801440  0.82147656    -0.63000
O699        O  0.16872717  0.19304017  0.82310263    -0.57800
O700        O  0.24164061  0.37270515  0.81787013    -0.94500
O701        O  0.22973930  0.29424413  0.81615301    -0.92900
O702        O  0.05336429  0.19934350  0.82333739    -0.93300
O703        O  0.05493471  0.28756648  0.82072486    -0.92000
C704        C  0.24258270  0.33684675  0.80639195     1.17000
H705        H  0.09839390  0.17943173  0.86498922     0.33000
H706        H  0.10635662  0.35910107  0.86531936     0.43800
H707        H  0.28352974  0.35372558  0.86275539     0.37300
H708        H  0.17034419  0.30204529  0.94710843     0.33800
H709        H  0.97382088  0.23898507  0.85509616     0.25600
H710        H  0.13685779  0.40593749  0.95623129     0.31500
H711        H  0.31106312  0.41591083  0.94952302     0.37500
H712        H  0.01649323  0.17808035  0.82360019     0.31900
H713        H  0.19317243  0.18136811  0.82185805     0.30800
H714        H  0.27951046  0.23704224  0.84345487     0.32500
H715        H  0.35361778  0.36194860  0.91906291     0.31400
H716        H  0.08275969  0.32245631  0.81928319     0.35400
H717        H  0.17457381  0.39120061  0.80903233     0.28200
H718        H  0.09944234  0.15334760  0.95520880     0.32400
H719        H  0.29782697  0.32655869  0.95672216     0.35300
H720        H  0.13809576  0.16401974  0.82973613     0.27900
H721        H  0.16194009  0.42306654  0.82630717     0.40700
H722        H  0.04224354  0.34948314  0.89843891     0.30800
H723        H  0.99380704  0.26206088  0.88102368     0.38400
H724        H  0.33818287  0.34287633  0.89213920     0.30300
H725        H  0.16524292  0.37777945  0.96359131     0.30300
H726        H  0.14394163  0.20548490  0.96336336     0.30600
Zr727      Zr  0.88114528  0.09872909  0.09397183     2.17500
O728        O  0.86560273  0.04354785  0.05912079    -0.51800
O729        O  0.96423751  0.11519208  0.10358627    -0.75000
O730        O  0.92696146  0.14613938  0.05762374    -0.81800
O731        O  0.81488173  0.99006379  0.13782928    -0.83500
O732        O  0.92363845  0.21763864  0.05599854    -0.79100
O733        O  0.86396563  0.01496485  0.10384982    -0.90800
O734        O  0.99347981  0.16976044  0.13528945    -0.76700
O735        O  0.92403126  0.18450881  0.10530738    -0.86200
O736        O  0.88654692  0.10067398  0.13768387    -0.85900
O737        O  0.83067496  0.13098056  0.07794702    -0.72700
O738        O  0.79658975  0.05281647  0.10870380    -0.84800
Zr739      Zr  0.79389883  0.17489572  0.14855985     2.26400
Zr740      Zr  0.87301130  0.21662491  0.09042347     2.06300
Zr741      Zr  0.80256348  0.05704365  0.15245187     2.10000
Zr742      Zr  0.92852002  0.18637097  0.14882349     1.78800
O743        O  0.72041039  0.98271056  0.15630731    -0.93600
O744        O  0.99809554  0.27041507  0.14153446    -0.41400
O745        O  0.84483605  0.14285699  0.16412520    -0.78000
O746        O  0.87909828  0.22109164  0.13440799    -0.96700
O747        O  0.78882447  0.17264517  0.10497582    -0.90000
O748        O  0.75110594  0.08876525  0.13769017    -0.92900
C749        C  0.99818532  0.14229287  0.11914406     1.00900
C750        C  0.83840147  0.98257360  0.12046159     1.13800
C751        C  0.93776503  0.18798617  0.04748058     1.04600
O752        O  0.94727656  0.29893278  0.08661028    -0.95000
O753        O  0.85584458  0.28209172  0.10196750    -0.90800
O754        O  0.80896363  0.25698928  0.13662165    -0.83900
C755        C  0.83222856  0.28886048  0.11950046     1.11200
O756        O  0.73264824  0.02917057  0.06033923    -0.97000
Zr757      Zr  0.74708639  0.08688743  0.09395290     1.88900
O758        O  0.70834521  0.15403476  0.14000170    -0.73600
O759        O  0.83201100  0.22657883  0.05443912    -0.52900
O760        O  0.72422987  0.11448727  0.05672244    -0.97600
O761        O  0.67109665  0.00736647  0.10202998    -0.54800
O762        O  0.68489563  0.10862929  0.10503662    -0.74200
C763        C  0.67728910  0.13168796  0.12245499     0.98200
O764        O  0.79906543  0.22701174  0.18321668    -0.63000
O765        O  0.83540036  0.03077362  0.18652927    -0.57800
O766        O  0.76702503  0.13915737  0.18940355    -0.94500
O767        O  0.77333925  0.06933133  0.19174623    -0.92900
O768        O  0.95219950  0.15691113  0.18515542    -0.93300
O769        O  0.94646189  0.23862081  0.18507414    -0.92000
C770        C  0.76378477  0.10163524  0.20121374     1.17000
H771        H  0.90458280  0.08464416  0.14347869     0.33000
H772        H  0.89460932  0.25536816  0.13981301     0.43800
H773        H  0.71843185  0.07139221  0.14521312     0.37300
H774        H  0.82946993  0.12867270  0.06024795     0.33800
H775        H  0.02781098  0.26978106  0.14785938     0.25600
H776        H  0.85407576  0.26167745  0.04925914     0.31500
H777        H  0.68754080  0.09256190  0.05535005     0.37500
H778        H  0.98917854  0.17686378  0.18562567     0.31900
H779        H  0.81539113  0.99382915  0.18664011     0.30800
H780        H  0.72454034  0.96265739  0.16931698     0.32500
H781        H  0.64536050  0.00786068  0.09137673     0.31400
H782        H  0.91342805  0.23296754  0.19044876     0.35400
H783        H  0.83170707  0.25823200  0.18165252     0.28200
H784        H  0.89896317  0.04972015  0.05402064     0.32400
H785        H  0.69771592  0.01633343  0.05494813     0.35300
H786        H  0.86920410  0.03851913  0.18131614     0.27900
H787        H  0.77357484  0.23683177  0.18015809     0.40700
H788        H  0.95579874  0.31151849  0.10364182     0.30800
H789        H  0.00255764  0.27277936  0.12349794     0.38400
H790        H  0.66063917  0.00991658  0.11886746     0.30300
H791        H  0.83587559  0.20651539  0.04141946     0.30300
H792        H  0.85452664  0.05724454  0.04562430     0.30600
C793        C  0.96835875  0.20330931  0.02439751    -0.05900
C794        C  0.97929924  0.24813228  0.01245982    -0.33300
C795        C  0.00890439  0.26439336  0.99117335     0.35900
C796        C  0.02806295  0.23546613  0.98090170    -0.06300
C797        C  0.01624705  0.19017547  0.99254258    -0.33200
C798        C  0.98705832  0.17414765  0.01394400     0.35800
H799        H  0.96521062  0.27126477  0.01971795     0.16200
O800        O  0.01815783  0.30840642  0.98047866    -0.60700
H801        H  0.03023559  0.16697920  0.98525778     0.16200
O802        O  0.97837971  0.13045237  0.02477762    -0.60800
H803        H  0.95137494  0.10347914  0.01493391     0.43200
H804        H  0.04684095  0.33494522  0.98970150     0.43200
C805        C  0.17040990  0.59748451  0.88080527    -0.05900
C806        C  0.14430121  0.56234368  0.89943031    -0.33300
C807        C  0.14384402  0.51712861  0.90070825     0.35900
C808        C  0.17011426  0.50563320  0.88315566    -0.06300
C809        C  0.19574961  0.54038655  0.86425671    -0.33200
C810        C  0.19599360  0.58578920  0.86294533     0.35800
H811        H  0.12403549  0.56978416  0.91342031     0.16200
O812        O  0.11822087  0.48505878  0.91962996    -0.60700
H813        H  0.21580291  0.53251207  0.85032534     0.16200
O814        O  0.22069134  0.61784454  0.84389373    -0.60800
H815        H  0.25614013  0.63694250  0.84911642     0.43200
H816        H  0.08316987  0.46528425  0.91382883     0.43200
C817        C  0.17764816  0.01299544  0.89030697    -0.05900
C818        C  0.14426219  0.01732832  0.90628692    -0.33300
C819        C  0.14083476  0.06077484  0.90683418     0.35900
C820        C  0.17137230  0.10137627  0.89129627    -0.06300
C821        C  0.20592356  0.09761854  0.87597864    -0.33200
C822        C  0.20915940  0.05424451  0.87529921     0.35800
H823        H  0.11974108  0.98650739  0.91813364     0.16200
O824        O  0.10710435  0.06268471  0.92247684    -0.60700
H825        H  0.23053452  0.12835711  0.86410534     0.16200
O826        O  0.24370015  0.05306782  0.85994922    -0.60800
H827        H  0.22714923  0.04340038  0.84367296     0.43200
H828        H  0.07501888  0.04706351  0.91335583     0.43200
C829        C  0.26784421  0.99511227  0.02501210    -0.05900
C830        C  0.29653031  0.97431887  0.01667004    -0.33300
C831        C  0.28323978  0.94461734  0.99548447     0.35900
C832        C  0.24026574  0.93481308  0.98184773    -0.06300
C833        C  0.21127054  0.95513565  0.99038347    -0.33200
C834        C  0.22474286  0.98508500  0.01147740     0.35800
H835        H  0.32966950  0.98098318  0.02662450     0.16200
O836        O  0.31307175  0.92586015  0.98828414    -0.60700
H837        H  0.17816232  0.94857755  0.98043824     0.16200
O838        O  0.19558101  0.00479107  0.01839644    -0.60800
H839        H  0.20960586  0.03710021  0.00953116     0.43200
H840        H  0.29815935  0.89235080  0.99601308     0.43200
C841        C  0.13255557  0.13251581  0.11833826    -0.05900
C842        C  0.12795432  0.16524500  0.13458148    -0.33300
C843        C  0.08528911  0.16976028  0.13474197     0.35900
C844        C  0.04532215  0.14064339  0.11865284    -0.06300
C845        C  0.05004411  0.10815799  0.10225852    -0.33200
C846        C  0.09310618  0.10415009  0.10188247     0.35800
H847        H  0.15768356  0.18786609  0.14734286     0.16200
O848        O  0.08300418  0.20219965  0.15109042    -0.60700
H849        H  0.02003410  0.08516654  0.08970660     0.16200
O850        O  0.09529074  0.07114365  0.08588180    -0.60800
H851        H  0.10445108  0.08862011  0.06980590     0.43200
H852        H  0.10105243  0.23541877  0.14302865     0.43200
C853        C  0.62971298  0.13280317  0.12201127    -0.05900
C854        C  0.61933833  0.15764321  0.14065016    -0.33300
C855        C  0.57495153  0.15943753  0.14056501     0.35900
C856        C  0.53967883  0.13629763  0.12145972    -0.06300
C857        C  0.55034314  0.11188039  0.10277793    -0.33200
C858        C  0.59449067  0.10999520  0.10286719     0.35800
H859        H  0.64564042  0.17579266  0.15549816     0.16200
O860        O  0.56693365  0.18434546  0.15919087    -0.60700
H861        H  0.52419868  0.09365609  0.08788050     0.16200
O862        O  0.60209188  0.08484575  0.08421833    -0.60800
H863        H  0.61550130  0.10893861  0.07037337     0.43200
H864        H  0.55243938  0.15980734  0.17280627     0.43200
C865        C  0.03370005  0.83006546  0.11773066    -0.05900
C866        C  0.03844608  0.87153988  0.10471703    -0.33300
C867        C  0.08414327  0.91644661  0.10367649     0.35900
C868        C  0.12652163  0.92065210  0.11578558    -0.06300
C869        C  0.12193151  0.87883792  0.12835871    -0.33200
C870        C  0.07626095  0.83419212  0.12958474     0.35800
H871        H  0.00629947  0.86968313  0.09570129     0.16200
O872        O  0.08610041  0.95652173  0.09177461    -0.60700
H873        H  0.15388107  0.88068371  0.13758607     0.16200
O874        O  0.07413102  0.79465406  0.14211965    -0.60800
H875        H  0.06902347  0.80013324  0.15955745     0.43200
H876        H  0.08970626  0.95119759  0.07412458     0.43200
C877        C  0.53413962  0.33540130  0.12646127    -0.05900
C878        C  0.53581268  0.37793654  0.11626595    -0.33300
C879        C  0.58061418  0.42336712  0.11498929     0.35900
C880        C  0.62504500  0.42711845  0.12416086    -0.06300
C881        C  0.62312611  0.38483048  0.13494611    -0.33200
C882        C  0.57821958  0.33922981  0.13610763     0.35800
H883        H  0.50216832  0.37601431  0.10910392     0.16200
O884        O  0.58009594  0.46417385  0.10543702    -0.60700
H885        H  0.65680301  0.38672705  0.14202546     0.16200
O886        O  0.57853399  0.29808629  0.14533682    -0.60800
H887        H  0.57721645  0.30078443  0.16342449     0.43200
H888        H  0.58073856  0.46068213  0.08736705     0.43200
C889        C  0.82803841  0.83782254  0.12065765    -0.05900
C890        C  0.85749026  0.87387852  0.10294741    -0.33300
C891        C  0.86122499  0.92086966  0.10241794     0.35900
C892        C  0.83527505  0.93298523  0.11989053    -0.06300
C893        C  0.80559959  0.89675366  0.13746224    -0.33200
C894        C  0.80205947  0.84997886  0.13808365     0.35800
H895        H  0.87815689  0.86593081  0.08939593     0.16200
O896        O  0.89125321  0.95479301  0.08502077    -0.60700
H897        H  0.78498873  0.90456776  0.15110248     0.16200
O898        O  0.77275706  0.81653565  0.15583317    -0.60800
H899        H  0.79370874  0.82657461  0.17085571     0.43200
H900        H  0.87004116  0.94675856  0.07015767     0.43200
C901        C  0.83227562  0.42821704  0.12379045    -0.05900
C902        C  0.86781112  0.42434541  0.10929522    -0.33300
C903        C  0.86793618  0.37940377  0.10745772     0.35900
C904        C  0.83228166  0.33683296  0.12044027    -0.06300
C905        C  0.79695589  0.34074090  0.13510479    -0.33200
C906        C  0.79678926  0.38578142  0.13689831     0.35800
H907        H  0.89591048  0.45640579  0.09921606     0.16200
O908        O  0.90423802  0.37822840  0.09350816    -0.60700
H909        H  0.76889761  0.30858854  0.14514226     0.16200
O910        O  0.76049088  0.38712994  0.15076043    -0.60800
H911        H  0.77454336  0.39563312  0.16758550     0.43200
H912        H  0.88992667  0.36926680  0.07674470     0.43200
C913        C  0.37107216  0.50334337  0.88392685    -0.05900
C914        C  0.37453033  0.54492622  0.87162214    -0.33300
C915        C  0.41825332  0.59165226  0.87282563     0.35900
C916        C  0.45982375  0.59741071  0.88638385    -0.06300
C917        C  0.45612952  0.55584158  0.89873396    -0.33200
C918        C  0.41257387  0.50935499  0.89762508     0.35800
H919        H  0.34297994  0.54151824  0.86130683     0.16200
O920        O  0.41975860  0.63127605  0.86067804    -0.60700
H921        H  0.48758545  0.55891520  0.90900538     0.16200
O922        O  0.41189915  0.46965549  0.90928660    -0.60800
H923        H  0.40538656  0.47294301  0.92681224     0.43200
H924        H  0.40424650  0.64456696  0.87206200     0.43200
C925        C  0.86851549  0.99917854  0.88913057    -0.05900
C926        C  0.87140527  0.03866678  0.87506736    -0.33300
C927        C  0.91456737  0.08560789  0.87491981     0.35900
C928        C  0.95628506  0.09438118  0.88926662    -0.06300
C929        C  0.95298491  0.05516423  0.90381272    -0.33200
C930        C  0.90987593  0.00795371  0.90372171     0.35800
H931        H  0.84002105  0.03328577  0.86393370     0.16200
O932        O  0.91499511  0.12267875  0.86086879    -0.60700
H933        H  0.98435431  0.06058540  0.91496556     0.16200
O934        O  0.90918924  0.97058096  0.91761209    -0.60800
H935        H  0.92291543  0.95468609  0.90675739     0.43200
H936        H  0.92466092  0.11790560  0.84417493     0.43200
C937        C  0.47030007  0.80957478  0.88031882    -0.05900
C938        C  0.42816179  0.77125324  0.86851522    -0.33300
C939        C  0.38209214  0.76938181  0.86936798     0.35900
C940        C  0.37741541  0.80674127  0.88187336    -0.06300
C941        C  0.41990029  0.84592370  0.89305945    -0.33200
C942        C  0.46587193  0.84747821  0.89247840     0.35800
H943        H  0.43033266  0.74146696  0.85924903     0.16200
O944        O  0.34162793  0.72992874  0.85846157    -0.60700
H945        H  0.41761593  0.87559538  0.90239160     0.16200
O946        O  0.50636074  0.88677591  0.90351480    -0.60800
H947        H  0.50309964  0.87810874  0.92122410     0.43200
H948        H  0.32628950  0.70423635  0.87153709     0.43200
C949        C  0.87217648  0.78966999  0.89019506    -0.05900
C950        C  0.88309219  0.76496037  0.87175357    -0.33300
C951        C  0.92935483  0.76736277  0.87076450     0.35900
C952        C  0.96657388  0.79507561  0.88850047    -0.06300
C953        C  0.95535652  0.81897235  0.90727482    -0.33200
C954        C  0.90886415  0.81646895  0.90826324     0.35800
H955        H  0.85589654  0.74404602  0.85762229     0.16200
O956        O  0.93787396  0.74338238  0.85185450    -0.60700
H957        H  0.98275528  0.83999169  0.92130940     0.16200
O958        O  0.89960138  0.83968768  0.92727315    -0.60800
H959        H  0.91677687  0.87555467  0.92272986     0.43200
H960        H  0.92613859  0.70903640  0.85796812     0.43200
C961        C  0.72854203  0.72903316  0.98418550    -0.05900
C962        C  0.77707445  0.75859052  0.99366898    -0.33300
C963        C  0.79253285  0.74454626  0.01494596     0.35900
C964        C  0.75927481  0.69994734  0.02752365    -0.06300
C965        C  0.71051811  0.67084236  0.01827140    -0.33200
C966        C  0.69497041  0.68502673  0.99707023     0.35800
H967        H  0.80373704  0.79273517  0.98442982     0.16200
O968        O  0.84048200  0.77487958  0.02308457    -0.60700
H969        H  0.68389898  0.63670564  0.02752591     0.16200
O970        O  0.64688374  0.65492667  0.98904302    -0.60800
H971        H  0.62658430  0.66618754  0.99817320     0.43200
H972        H  0.86106037  0.76401523  0.01391374     0.43200
C973        C  0.75144564  0.09657959  0.22792474    -0.05900
C974        C  0.74347119  0.05351781  0.24061005    -0.33300
C975        C  0.74212974  0.05148879  0.26627635     0.35900
C976        C  0.75011480  0.09352732  0.27999788    -0.06300
C977        C  0.75299574  0.13456866  0.26733730    -0.33200
C978        C  0.75294203  0.13605028  0.24163325     0.35800
H979        H  0.74026549  0.02176967  0.23066766     0.16200
O980        O  0.73556572  0.00901113  0.27764501    -0.60700
H981        H  0.75796685  0.16700645  0.27728979     0.16200
O982        O  0.75767276  0.17782177  0.23032101    -0.60800
H983        H  0.72292543  0.17077437  0.22790738     0.43200
H984        H  0.69944154  0.98958649  0.28167768     0.43200
C985        C  0.25792878  0.34610306  0.72732210    -0.05900
C986        C  0.26097884  0.30840469  0.74038797    -0.33300
C987        C  0.26001081  0.30692461  0.76611935     0.35900
C988        C  0.25567878  0.34354707  0.77964616    -0.06300
C989        C  0.25773912  0.38393601  0.76666936    -0.33200
C990        C  0.25902770  0.38557788  0.74090385     0.35800
H991        H  0.26132741  0.27807968  0.73067936     0.16200
O992        O  0.26019530  0.26757994  0.77767148    -0.60700
H993        H  0.25538577  0.41315669  0.77640820     0.16200
O994        O  0.25775951  0.42434371  0.72937111    -0.60800
H995        H  0.29299458  0.44830630  0.72497449     0.43200
H996        H  0.29596776  0.27883580  0.78058152     0.43200
C997        C  0.02868278  0.22858126  0.52645875    -0.05900
C998        C  0.00446550  0.17821177  0.51909461    -0.33300
C999        C  0.97363556  0.16182478  0.49824007     0.35900
C1000       C  0.96672370  0.19602409  0.48389098    -0.06300
C1001       C  0.99081379  0.24627740  0.49125594    -0.33200
C1002       C  0.02137752  0.26264168  0.51213296     0.35800
H1003       H  0.00887274  0.15100391  0.52970115     0.16200
O1004       O  0.95014886  0.11210891  0.49228976    -0.60700
H1005       H  0.98654580  0.27351203  0.48058785     0.16200
O1006       O  0.04381746  0.31222903  0.51823365    -0.60800
H1007       H  0.07687120  0.32816432  0.50999228     0.43200
H1008       H  0.91714729  0.09698804  0.50055229     0.43200
C1009       C  0.12723526  0.70588044  0.72708168    -0.05900
C1010       C  0.08635862  0.70350306  0.73968485    -0.33300
C1011       C  0.08569765  0.70580318  0.76538408     0.35900
C1012       C  0.12617236  0.70976662  0.77932681    -0.06300
C1013       C  0.16418560  0.70631927  0.76683518    -0.33200
C1014       C  0.16494154  0.70429461  0.74110606     0.35800
H1015       H  0.05598781  0.70323221  0.72961222     0.16200
O1016       O  0.04603273  0.70606981  0.77650489    -0.60700
H1017       H  0.19534466  0.70826237  0.77690244     0.16200
O1018       O  0.20485673  0.70459268  0.73001335    -0.60800
H1019       H  0.19326021  0.66910020  0.72623774     0.43200
H1020       H  0.05186299  0.74037891  0.77408096     0.43200
C1021       C  0.16398697  0.49945878  0.62376945    -0.05900
C1022       C  0.12628338  0.50358522  0.61147853    -0.33300
C1023       C  0.12518178  0.54821247  0.61178314     0.35900
C1024       C  0.16263136  0.59036564  0.62433223    -0.06300
C1025       C  0.19991124  0.58602993  0.63696089    -0.33200
C1026       C  0.20085310  0.54127158  0.63679360     0.35800
H1027       H  0.09722793  0.47195568  0.60160531     0.16200
O1028       O  0.08721475  0.55001248  0.59965670    -0.60700
H1029       H  0.22937290  0.61787391  0.64653471     0.16200
O1030       O  0.23959620  0.53984419  0.64833315    -0.60800
H1031       H  0.23055852  0.53501062  0.66599064     0.43200
H1032       H  0.06105663  0.54179670  0.61225072     0.43200
C1033       C  0.17114939  0.00664612  0.62275018    -0.05900
C1034       C  0.17892358  0.03314366  0.64475363    -0.33300
C1035       C  0.17386101  0.07561130  0.64573966     0.35900
C1036       C  0.16115353  0.09286932  0.62438275    -0.06300
C1037       C  0.15227831  0.06576586  0.60253404    -0.33200
C1038       C  0.15746962  0.02342059  0.60151609     0.35800
H1039       H  0.18833763  0.02057965  0.66145005     0.16200
O1040       O  0.17975142  0.09884896  0.66791502    -0.60700
H1041       H  0.14260728  0.07818040  0.58586521     0.16200
O1042       O  0.14959762  0.99920490  0.57949484    -0.60800
H1043       H  0.18230583  0.01659221  0.57093163     0.43200
H1044       H  0.21630144  0.12142830  0.66975909     0.43200
C1045       C  0.37829933  0.21758262  0.22724635    -0.05900
C1046       C  0.41893717  0.21936303  0.23981355    -0.33300
C1047       C  0.42162686  0.22134655  0.26552633     0.35900
C1048       C  0.38287893  0.22103710  0.27945827    -0.06300
C1049       C  0.34513329  0.22466144  0.26676068    -0.33200
C1050       C  0.34246785  0.22277584  0.24105136     0.39400
H1051       H  0.44760170  0.21640385  0.22981497     0.16200
O1052       O  0.46075720  0.22018284  0.27669455    -0.60700
H1053       H  0.31562465  0.22610231  0.27676389     0.16200
O1054       O  0.30374434  0.22463139  0.22973940    -0.60800
H1055       H  0.27419375  0.19078988  0.23186142     0.43200
H1056       H  0.48675894  0.25571197  0.27888370     0.43200
C1057       C  0.27289781  0.99553830  0.48190642    -0.05900
C1058       C  0.22498716  0.97797789  0.49196421    -0.33300
C1059       C  0.20922707  0.94796757  0.51318647     0.35900
C1060       C  0.24145097  0.93445383  0.52514029    -0.06300
C1061       C  0.28916050  0.95161207  0.51495847    -0.33200
C1062       C  0.30486091  0.98146333  0.49370112     0.35800
H1063       H  0.19922167  0.98749087  0.48338079     0.16200
O1064       O  0.16159179  0.93108100  0.52161829    -0.60700
H1065       H  0.31495262  0.94217873  0.52357895     0.16200
O1066       O  0.35209466  0.99729849  0.48498871    -0.60800
H1067       H  0.34908323  0.96915391  0.47501135     0.43200
H1068       H  0.16317265  0.95959331  0.53067647     0.43200
C1069       C  0.04511261  0.13338461  0.38727911    -0.05900
C1070       C  0.05043600  0.10033859  0.40312121    -0.33300
C1071       C  0.09410772  0.09712087  0.40315955     0.35900
C1072       C  0.13389659  0.12728015  0.38708867    -0.06300
C1073       C  0.12844943  0.16015508  0.37123908    -0.33200
C1074       C  0.08490117  0.16327362  0.37111171     0.35800
H1075       H  0.02049882  0.07647244  0.41554590     0.16200
O1076       O  0.09668739  0.06331239  0.41853730    -0.60700
H1077       H  0.15828029  0.18411008  0.35878124     0.16200
O1078       O  0.08240912  0.19662401  0.35535340    -0.60800
H1079       H  0.07434308  0.18007727  0.33908168     0.43200
H1080       H  0.10507764  0.07945101  0.43490476     0.43200
C1081       C  0.53723805  0.12470641  0.38096752    -0.05900
C1082       C  0.54223746  0.09075106  0.39616457    -0.33300
C1083       C  0.58613843  0.08843686  0.39636281     0.35900
C1084       C  0.62639306  0.12001079  0.38080182    -0.06300
C1085       C  0.62068090  0.15265135  0.36489840    -0.33200
C1086       C  0.57700642  0.15558299  0.36503670     0.35800
H1087       H  0.51221550  0.06613834  0.40837966     0.16200
O1088       O  0.58896595  0.05503796  0.41194868    -0.60700
H1089       H  0.65085081  0.17743651  0.35280172     0.16200
O1090       O  0.57440817  0.18971046  0.34990674    -0.60800
H1091       H  0.58789519  0.22075389  0.35973921     0.43200
H1092       H  0.60018617  0.07268104  0.42788738     0.43200
C1093       C  0.87524963  0.58410402  0.22728820    -0.05900
C1094       C  0.83718217  0.54373884  0.24039994    -0.33300
C1095       C  0.83686534  0.54295350  0.26620373     0.35900
C1096       C  0.87551528  0.58287736  0.27956613    -0.06300
C1097       C  0.91616765  0.62030905  0.26632427    -0.33200
C1098       C  0.91644065  0.62113137  0.24063362     0.35800
H1099       H  0.80562556  0.51407288  0.23075584     0.16200
O1100       O  0.79731151  0.50404622  0.27801435    -0.60700
H1101       H  0.94703031  0.65095449  0.27585839     0.16200
O1102       O  0.95595673  0.66034728  0.22894260    -0.60800
H1103       H  0.97954989  0.64837322  0.22519381     0.43200
H1104       H  0.76902554  0.51032665  0.27604543     0.43200
C1105       C  0.83936608  0.93193008  0.38553735    -0.05900
C1106       C  0.86870712  0.92373716  0.40259022    -0.33300
C1107       C  0.86758829  0.87800582  0.40372493     0.35900
C1108       C  0.83689473  0.83902956  0.38744601    -0.06300
C1109       C  0.80739266  0.84718743  0.37048025    -0.33200
C1110       C  0.80850478  0.89284160  0.36933134     0.35800
H1111       H  0.89291360  0.95294630  0.41521236     0.16200
O1112       O  0.89747239  0.87245183  0.42057108    -0.60700
H1113       H  0.78311197  0.81804489  0.35784519     0.16200
O1114       O  0.77825891  0.89812549  0.35259091    -0.60800
H1115       H  0.79630459  0.90527611  0.33672085     0.43200
H1116       H  0.87847199  0.86374530  0.43620170     0.43200
C1117       C  0.84198006  0.33840917  0.38351018    -0.05900
C1118       C  0.88077284  0.37975467  0.39556045    -0.33300
C1119       C  0.88374737  0.42630397  0.39504460     0.35900
C1120       C  0.84722307  0.43244210  0.38239847    -0.06300
C1121       C  0.80902229  0.39136634  0.36985440    -0.33200
C1122       C  0.80599822  0.34471603  0.37041562     0.35800
H1123       H  0.90918703  0.37612280  0.40548314     0.16200
O1124       O  0.92237985  0.46527996  0.40725743    -0.60700
H1125       H  0.78032723  0.39487476  0.36013467     0.16200
O1126       O  0.76703486  0.30544652  0.35850739    -0.60800
H1127       H  0.73949041  0.29047846  0.37068656     0.43200
H1128       H  0.94711426  0.48523031  0.39437411     0.43200
C1129       C  0.03705650  0.83852076  0.38393356    -0.05900
C1130       C  0.04869608  0.87190814  0.40363254    -0.33300
C1131       C  0.09492418  0.91610249  0.40496064     0.35900
C1132       C  0.13121743  0.92756343  0.38650669    -0.06300
C1133       C  0.11928264  0.89450321  0.36669191    -0.33200
C1134       C  0.07284030  0.85091785  0.36512343     0.35800
H1135       H  0.02206429  0.86371909  0.41831972     0.16200
O1136       O  0.10438866  0.94700010  0.42472101    -0.60700
H1137       H  0.14593178  0.90245503  0.35204139     0.16200
O1138       O  0.06336725  0.82064707  0.34511745    -0.60800
H1139       H  0.04705526  0.83186683  0.33300262     0.43200
H1140       H  0.08793743  0.96664468  0.42077217     0.43200
C1141       C  0.63273875  0.43184899  0.38511991    -0.05900
C1142       C  0.58975840  0.43068533  0.39431277    -0.33300
C1143       C  0.54305476  0.38701249  0.39315274     0.35900
C1144       C  0.53863565  0.34320491  0.38272142    -0.06300
C1145       C  0.58145917  0.34473635  0.37309276    -0.33200
C1146       C  0.62813804  0.38834422  0.37429201     0.35800
H1147       H  0.59227336  0.46382101  0.40240690     0.16200
O1148       O  0.50218477  0.38753231  0.40257020    -0.60700
H1149       H  0.57921573  0.31142944  0.36538252     0.16200
O1150       O  0.66945429  0.38703230  0.36617054    -0.60800
H1151       H  0.66916430  0.39021372  0.34806083     0.43200
H1152       H  0.48867414  0.39812706  0.38875219     0.43200
C1153       C  0.62136872  0.83509800  0.72737761    -0.05900
C1154       C  0.65670333  0.87804496  0.74003047    -0.33300
C1155       C  0.65806822  0.87959838  0.76576541     0.35900
C1156       C  0.62320488  0.83789186  0.77958127    -0.06300
C1157       C  0.58454095  0.79724925  0.76697636    -0.33200
C1158       C  0.58334222  0.79554675  0.74125629     0.35800
H1159       H  0.68544708  0.90976652  0.73003164     0.16200
O1160       O  0.69463082  0.92164321  0.77715975    -0.60700
H1161       H  0.55671687  0.76494326  0.77700791     0.16200
O1162       O  0.54674211  0.75326094  0.73013441    -0.60800
H1163       H  0.51973116  0.76062409  0.72629344     0.43200
H1164       H  0.72573572  0.92005893  0.77537001     0.43200
C1165       C  0.46850138  0.58986563  0.62210817    -0.05900
C1166       C  0.46223820  0.54942475  0.60785938    -0.33300
C1167       C  0.41718236  0.50395093  0.60811680     0.35900
C1168       C  0.37665985  0.49802094  0.62269410    -0.06300
C1169       C  0.38312918  0.53834252  0.63714857    -0.33200
C1170       C  0.42818921  0.58389592  0.63683141     0.35800
H1171       H  0.49252499  0.55282490  0.59648380     0.16200
O1172       O  0.41340583  0.46569823  0.59390132    -0.60700
H1173       H  0.35271012  0.53511189  0.64835261     0.16200
O1174       O  0.43177791  0.62256598  0.65063973    -0.60800
H1175       H  0.42238774  0.64174197  0.63936275     0.43200
H1176       H  0.42329142  0.44642578  0.60482849     0.43200
C1177       C  0.96144355  0.08937113  0.62293578    -0.05900
C1178       C  0.95103706  0.05702594  0.60292311    -0.33300
C1179       C  0.90747431  0.01046633  0.60219448     0.35900
C1180       C  0.87315102  0.99505706  0.62185686    -0.06300
C1181       C  0.88380735  0.02725810  0.64194869    -0.33200
C1182       C  0.92735083  0.07376118  0.64269303     0.35800
H1183       H  0.97649466  0.06787984  0.58749262     0.16200
O1184       O  0.89917347  0.98056027  0.58214407    -0.60700
H1185       H  0.85834997  0.01652851  0.65737345     0.16200
O1186       O  0.93565685  0.10365043  0.66275958    -0.60800
H1187       H  0.94763880  0.08981435  0.67583185     0.43200
H1188       H  0.88410435  0.99234321  0.56961560     0.43200
C1189       C  0.46879576  0.79997293  0.62523132    -0.05900
C1190       C  0.42627407  0.76038676  0.63627670    -0.33300
C1191       C  0.37994904  0.75827852  0.63530573     0.35900
C1192       C  0.37562163  0.79662873  0.62339842    -0.06300
C1193       C  0.41834736  0.83651216  0.61277288    -0.33200
C1194       C  0.46451250  0.83870354  0.61380669     0.35800
H1195       H  0.42852351  0.73014458  0.64508933     0.16200
O1196       O  0.33911180  0.71800689  0.64561591    -0.60700
H1197       H  0.41627649  0.86679453  0.60388694     0.16200
O1198       O  0.50528056  0.87924917  0.60364651    -0.60800
H1199       H  0.52049577  0.90356408  0.61725293     0.43200
H1200       H  0.32278151  0.69411688  0.63193940     0.43200
C1201       C  0.88330694  0.80551950  0.62114030    -0.05900
C1202       C  0.90078988  0.79573225  0.64311380    -0.33300
C1203       C  0.94709955  0.79814184  0.64419231     0.35900
C1204       C  0.97723982  0.81036080  0.62299786    -0.06300
C1205       C  0.96057106  0.82160014  0.60118714    -0.33200
C1206       C  0.91412254  0.81909801  0.60007860     0.35800
H1207       H  0.87842987  0.78599390  0.65967516     0.16200
O1208       O  0.96218839  0.78803756  0.66610125    -0.60700
H1209       H  0.98298438  0.83107634  0.58464834     0.16200
O1210       O  0.89912220  0.82928245  0.57816914    -0.60800
H1211       H  0.88301786  0.79721736  0.56908855     0.43200
H1212       H  0.98169704  0.82085538  0.67432427     0.43200
C1213       C  0.73945960  0.72854058  0.52501804    -0.05900
C1214       C  0.79009713  0.75505179  0.51791869    -0.33300
C1215       C  0.80721940  0.74084243  0.49730421     0.35900
C1216       C  0.77361708  0.69930033  0.48308070    -0.06300
C1217       C  0.72306090  0.67282587  0.49017613    -0.33200
C1218       C  0.70586206  0.68715153  0.51064479     0.35800
H1219       H  0.81694446  0.78684663  0.52852176     0.16200
O1220       O  0.85700703  0.76785448  0.49140351    -0.60700
H1221       H  0.69617645  0.64109722  0.47954086     0.16200
O1222       O  0.65590874  0.66025973  0.51624102    -0.60800
H1223       H  0.64060386  0.67730156  0.50736849     0.43200
H1224       H  0.87271429  0.75123270  0.50029639     0.43200
loop_ 
_geom_bond_atom_site_label_1 
_geom_bond_atom_site_label_2 
_geom_bond_distance 
_geom_bond_site_symmetry_2 
_ccdc_geom_bond_type 
Zr1           O2   2.440       .  S
Zr1           O3   2.440       .  S
Zr1           O4   2.448       .  S
Zr1           O7   2.416       .  S
Zr1           O9   2.379       .  S
Zr1          O10   2.384       .  S
Zr1          O11   2.403       .  S
Zr1          O12   2.409       .  S
O2           H58   0.990       .  S
O2           H66   0.990       .  S
O3           C23   1.285       .  A
O4           C25   1.285       .  A
O5          Zr15   2.433       .  S
O5           C24   1.286       .  A
O6          Zr14   2.442       .  S
O6           C25   1.286       .  A
O7           C24   1.281       .  A
O8          Zr16   2.409       .  S
O8           C23   1.280       .  A
O9          Zr14   2.387       .  S
O9          Zr16   2.385       .  S
O10         Zr15   2.390       .  S
O10         Zr16   2.373       .  S
O10          H45   0.966       .  S
O11         Zr14   2.394       .  S
O11         Zr31   2.389       .  S
O11          H48   0.965       .  S
O12         Zr15   2.398       .  S
O12         Zr31   2.401       .  S
Zr13         O38   2.442       .  S
Zr13         O32   2.422       .  S
Zr13         O40   2.443       .  S
Zr13         O28   2.419       .  S
Zr13         O19   2.397       .  S
Zr13         O20   2.407       .  S
Zr13         O21   2.382       .  S
Zr13         O22   2.375       .  S
Zr14         O33   2.438       .  S
Zr14         O26   2.436       .  S
Zr14         O27   2.417       .  S
Zr14         O20   2.400       .  S
Zr14         O21   2.392       .  S
Zr15         O17   2.434       .  S
Zr15         O39   2.436       .  S
Zr15         O41   2.438       .  S
Zr15         O19   2.390       .  S
Zr15         O22   2.387       .  S
Zr16         O42   2.436       .  S
Zr16         O43   2.437       .  S
Zr16         O18   2.437       .  S
Zr16         O19   2.399       .  S
Zr16         O20   2.386       .  S
O17          H54   0.990       .  S
O18          H49   0.990       .  S
O18          H63   0.990       .  S
O20          H46   0.966       .  S
O21         Zr31   2.367       .  S
O22         Zr31   2.368       .  S
O22          H47   0.965       .  S
C23        C1189   1.483       .  S
C24        C1165   1.485       .  S
C25        C1153   1.498       .  S
O26          H62   0.990       .  S
O27          C29   1.284       .  A
O28          C29   1.283       .  A
C29        C1180   1.480       .  S
O30         Zr31   2.439       .  S
O30          H59   0.990       .  S
Zr31         O34   2.438       .  S
Zr31         O35   2.439       .  S
Zr31         O36   2.432       .  S
O32          C37   1.282       .  A
O33          H50   0.990       .  S
O33          H65   0.990       .  S
O34          H51   0.990       .  S
O35          H55   0.990       .  S
O35          H64   0.990       .  S
O36          C37   1.285       .  A
C37        C1201   1.487       .  S
O38          H57   0.990       .  S
O38          H61   0.990       .  S
O39          H53   0.990       .  S
O39          H60   0.990       .  S
O40          C44   1.287       .  A
O41          C44   1.286       .  A
O42          H52   0.990       .  S
O43          H56   0.989       .  S
C44        C1213   1.497       .  S
Zr67         O68   2.438       .  S
Zr67         O69   2.433       .  S
Zr67         O70   2.446       .  S
Zr67         O73   2.419       .  S
Zr67         O75   2.380       .  S
Zr67         O76   2.384       .  S
Zr67         O77   2.406       .  S
Zr67         O78   2.403       .  S
O68         H124   0.990       .  S
O68         H132   0.990       .  S
O69          C89   1.284       .  A
O70          C91   1.286       .  A
O71         Zr81   2.430       .  S
O71          C90   1.285       .  A
O72         Zr80   2.445       .  S
O72          C91   1.288       .  A
O73          C90   1.282       .  A
O74         Zr82   2.416       .  S
O74          C89   1.281       .  A
O75         Zr80   2.393       .  S
O75         Zr82   2.385       .  S
O76         Zr81   2.391       .  S
O76         Zr82   2.375       .  S
O76         H111   0.966       .  S
O77         Zr80   2.396       .  S
O77         Zr97   2.389       .  S
O77         H114   0.965       .  S
O78         Zr81   2.390       .  S
O78         Zr97   2.393       .  S
Zr79        O104   2.441       .  S
Zr79         O98   2.422       .  S
Zr79        O106   2.444       .  S
Zr79         O94   2.426       .  S
Zr79         O85   2.397       .  S
Zr79         O86   2.406       .  S
Zr79         O87   2.382       .  S
Zr79         O88   2.378       .  S
Zr80         O99   2.437       .  S
Zr80         O92   2.437       .  S
Zr80         O93   2.429       .  S
Zr80         O86   2.401       .  S
Zr80         O87   2.390       .  S
Zr81         O83   2.435       .  S
Zr81        O105   2.435       .  S
Zr81        O107   2.436       .  S
Zr81         O85   2.393       .  S
Zr81         O88   2.385       .  S
Zr82        O108   2.436       .  S
Zr82        O109   2.436       .  S
Zr82         O84   2.437       .  S
Zr82         O85   2.399       .  S
Zr82         O86   2.391       .  S
O83         H120   0.990       .  S
O84         H115   0.990       .  S
O84         H129   0.990       .  S
O86         H112   0.966       .  S
O87         Zr97   2.372       .  S
O88         Zr97   2.367       .  S
O88         H113   0.965       .  S
C89        C1120   1.484       .  S
C90        C1141   1.481       .  S
C91        C1096   1.499       .  S
O92         H128   0.990       .  S
O93          C95   1.285       .  A
O94          C95   1.285       .  A
C95        C1129   1.488   1_655  S
O96         Zr97   2.438       .  S
O96         H125   0.990       .  S
Zr97        O100   2.438       .  S
Zr97        O101   2.438       .  S
Zr97        O102   2.424       .  S
O98         C103   1.282       .  A
O99         H116   0.990       .  S
O99         H131   0.990       .  S
O100        H117   0.991       .  S
O101        H121   0.990       .  S
O101        H130   0.990       .  S
O102        C103   1.283       .  A
C103       C1108   1.488       .  S
O104        H123   0.990       .  S
O104        H127   0.990       .  S
O105        H119   0.990       .  S
O105        H126   0.990       .  S
O106        C110   1.287       .  A
O107        C110   1.287       .  A
O108        H118   0.990       .  S
O109        H122   0.990       .  S
C110       C1216   1.494       .  S
Zr133       O134   2.442       .  S
Zr133       O135   2.440       .  S
Zr133       O136   2.453       .  S
Zr133       O139   2.419       .  S
Zr133       O141   2.380       .  S
Zr133       O142   2.390       .  S
Zr133       O143   2.405       .  S
Zr133       O144   2.410       .  S
O134        H190   0.990       .  S
O134        H198   0.990       .  S
O135        C155   1.286       .  A
O136        C157   1.286       .  A
O137       Zr147   2.422       .  S
O137        C156   1.284       .  A
O138       Zr146   2.438       .  S
O138        C157   1.285       .  A
O139        C156   1.281       .  A
O140       Zr148   2.408       .  S
O140        C155   1.279       .  A
O141       Zr146   2.392       .  S
O141       Zr148   2.388       .  S
O142       Zr147   2.394       .  S
O142       Zr148   2.378       .  S
O142        H177   0.966       .  S
O143       Zr146   2.399       .  S
O143       Zr163   2.385       .  S
O143        H180   0.964       .  S
O144       Zr147   2.395       .  S
O144       Zr163   2.391       .  S
Zr145       O170   2.439       .  S
Zr145       O164   2.414       .  S
Zr145       O172   2.449       .  S
Zr145       O160   2.432       .  S
Zr145       O151   2.397       .  S
Zr145       O152   2.404       .  S
Zr145       O153   2.383       .  S
Zr145       O154   2.380       .  S
Zr146       O165   2.439       .  S
Zr146       O158   2.435       .  S
Zr146       O159   2.430       .  S
Zr146       O152   2.396       .  S
Zr146       O153   2.389       .  S
Zr147       O149   2.436       .  S
Zr147       O171   2.435       .  S
Zr147       O173   2.444       .  S
Zr147       O151   2.387       .  S
Zr147       O154   2.382       .  S
Zr148       O174   2.437       .  S
Zr148       O175   2.435       .  S
Zr148       O150   2.435       .  S
Zr148       O151   2.398       .  S
Zr148       O152   2.386       .  S
O149        H186   0.990       .  S
O150        H181   0.990       .  S
O150        H195   0.990       .  S
O152        H178   0.966       .  S
O153       Zr163   2.373       .  S
O154       Zr163   2.365       .  S
O154        H179   0.965       .  S
C155       C1144   1.482       .  S
C156       C1081   1.483       .  S
C157       C1048   1.498       .  S
O158        H194   0.990       .  S
O159        C161   1.286       .  A
O160        C161   1.285       .  A
C161       C1072   1.490       .  S
O162       Zr163   2.439       .  S
O162        H191   0.990   1_545  S
Zr163       O166   2.435       .  S
Zr163       O167   2.441   1_545  S
Zr163       O168   2.423   1_545  S
O164        C169   1.281   1_545  A
O165        H182   0.990       .  S
O165        H197   0.990       .  S
O166        H183   0.990       .  S
O167        H187   0.990       .  S
O167        H196   0.990       .  S
O168        C169   1.284       .  A
C169       C1132   1.485       .  S
O170        H189   0.990       .  S
O170        H193   0.990       .  S
O171        H185   0.990       .  S
O171        H192   0.990       .  S
O172        C176   1.289       .  A
O173        C176   1.287       .  A
O174        H184   0.990       .  S
O175        H188   0.990       .  S
C176       C1057   1.504   1_545  S
Zr199       O200   2.440       .  S
Zr199       O201   2.436       .  S
Zr199       O202   2.451       .  S
Zr199       O205   2.417       .  S
Zr199       O207   2.377       .  S
Zr199       O208   2.385       .  S
Zr199       O209   2.405       .  S
Zr199       O210   2.412       .  S
O200        H256   0.990       .  S
O200        H264   0.990       .  S
O201        C221   1.285       .  A
O202        C223   1.287       .  A
O203       Zr213   2.439       .  S
O203        C222   1.287       .  A
O204       Zr212   2.435       .  S
O204        C223   1.285       .  A
O205        C222   1.281       .  A
O206       Zr214   2.417       .  S
O206        C221   1.281       .  A
O207       Zr212   2.390       .  S
O207       Zr214   2.383       .  S
O208       Zr213   2.395       .  S
O208       Zr214   2.372       .  S
O208        H243   0.966       .  S
O209       Zr212   2.397       .  S
O209       Zr229   2.392       .  S
O209        H246   0.965       .  S
O210       Zr213   2.395       .  S
O210       Zr229   2.404       .  S
Zr211       O236   2.440       .  S
Zr211       O230   2.414       .  S
Zr211       O238   2.437       .  S
Zr211       O226   2.428       .  S
Zr211       O217   2.394       .  S
Zr211       O218   2.401       .  S
Zr211       O219   2.379       .  S
Zr211       O220   2.380       .  S
Zr212       O231   2.436       .  S
Zr212       O224   2.436       .  S
Zr212       O225   2.424       .  S
Zr212       O218   2.396       .  S
Zr212       O219   2.389       .  S
Zr213       O215   2.434       .  S
Zr213       O237   2.435       .  S
Zr213       O239   2.453       .  S
Zr213       O217   2.393       .  S
Zr213       O220   2.385       .  S
Zr214       O240   2.434       .  S
Zr214       O241   2.437       .  S
Zr214       O216   2.438       .  S
Zr214       O217   2.397       .  S
Zr214       O218   2.390       .  S
O215        H252   0.990       .  S
O216        H247   0.990       .  S
O216        H261   0.990       .  S
O218        H244   0.966       .  S
O219       Zr229   2.370       .  S
O220       Zr229   2.372       .  S
O220        H245   0.966       .  S
C221       C1024   1.485       .  S
C222       C1192   1.483       .  S
C223       C1009   1.498       .  S
O224        H260   0.990       .  S
O225        C227   1.284       .  A
O226        C227   1.285       .  A
C227       C1204   1.482   1_455  S
O228       Zr229   2.441       .  S
O228        H257   0.990       .  S
Zr229       O232   2.438       .  S
Zr229       O233   2.438       .  S
Zr229       O234   2.444       .  S
O230        C235   1.281       .  A
O231        H248   0.990       .  S
O231        H263   0.990       .  S
O232        H249   0.990       .  S
O233        H253   0.990       .  S
O233        H262   0.990       .  S
O234        C235   1.287       .  A
C235       C1033   1.488   1_565  S
O236        H255   0.990       .  S
O236        H259   0.990       .  S
O237        H251   0.990       .  S
O237        H258   0.990       .  S
O238        C242   1.286       .  A
O239        C242   1.290       .  A
O240        H250   0.990       .  S
O241        H254   0.990       .  S
C242       C1060   1.503       .  S
Zr265       O266   2.440       .  S
Zr265       O267   2.444       .  S
Zr265       O268   2.450       .  S
Zr265       O271   2.414       .  S
Zr265       O273   2.379       .  S
Zr265       O274   2.388       .  S
Zr265       O275   2.403       .  S
Zr265       O276   2.409       .  S
O266        H322   0.990       .  S
O266        H330   0.990       .  S
O267        C287   1.287       .  A
O268        C289   1.286       .  A
O269       Zr279   2.439       .  S
O269        C288   1.287       .  A
O270       Zr278   2.439       .  S
O270        C289   1.286       .  A
O271        C288   1.281       .  A
O272       Zr280   2.410       .  S
O272        C287   1.279       .  A
O273       Zr278   2.387       .  S
O273       Zr280   2.388       .  S
O274       Zr279   2.390       .  S
O274       Zr280   2.374       .  S
O274        H309   0.966       .  S
O275       Zr278   2.397       .  S
O275       Zr295   2.384       .  S
O275        H312   0.964       .  S
O276       Zr279   2.393       .  S
O276       Zr295   2.396       .  S
Zr277       O302   2.443       .  S
Zr277       O296   2.409       .  S
Zr277       O304   2.447       .  S
Zr277       O292   2.441       .  S
Zr277       O283   2.400       .  S
Zr277       O284   2.402       .  S
Zr277       O285   2.377       .  S
Zr277       O286   2.383       .  S
Zr278       O297   2.438       .  S
Zr278       O290   2.432       .  S
Zr278       O291   2.418       .  S
Zr278       O284   2.399       .  S
Zr278       O285   2.389       .  S
Zr279       O281   2.435       .  S
Zr279       O303   2.435       .  S
Zr279       O305   2.438       .  S
Zr279       O283   2.395       .  S
Zr279       O286   2.388       .  S
Zr280       O306   2.436       .  S
Zr280       O307   2.436       .  S
Zr280       O282   2.437       .  S
Zr280       O283   2.395       .  S
Zr280       O284   2.391       .  S
O281        H318   0.990       .  S
O282        H313   0.990       .  S
O282        H327   0.990       .  S
O284        H310   0.966       .  S
O285       Zr295   2.369       .  S
O286       Zr295   2.367       .  S
O286        H311   0.965       .  S
C287       C1168   1.488       .  S
C288       C1021   1.485       .  S
C289        C985   1.499       .  S
O290        H326   0.990       .  S
O291        C293   1.282       .  A
O292        C293   1.288       .  A
C293       C1036   1.486       .  S
O294       Zr295   2.438       .  S
O294        H323   0.990       .  S
Zr295       O298   2.438       .  S
Zr295       O299   2.441   1_455  S
Zr295       O300   2.416       .  S
O296        C301   1.281       .  A
O297        H314   0.990       .  S
O297        H329   0.990       .  S
O298        H315   0.990       .  S
O299        H319   0.990       .  S
O299        H328   0.990   1_655  S
O300        C301   1.280       .  A
C301       C1177   1.479   1_455  S
O302        H321   0.990       .  S
O302        H325   0.990       .  S
O303        H317   0.990       .  S
O303        H324   0.990       .  S
O304        C308   1.288       .  A
O305        C308   1.286       .  A
O306        H316   0.990       .  S
O307        H320   0.990       .  S
C308        C997   1.498       .  S
Zr331       O332   2.443       .  S
Zr331       O333   2.433       .  S
Zr331       O334   2.441       .  S
Zr331       O337   2.416       .  S
Zr331       O339   2.377       .  S
Zr331       O340   2.385       .  S
Zr331       O341   2.401       .  S
Zr331       O342   2.406       .  S
O332        H388   0.991       .  S
O332        H396   0.991       .  S
O333        C353   1.284       .  A
O334        C355   1.285       .  A
O335       Zr345   2.437       .  S
O335        C354   1.287       .  A
O336       Zr344   2.426       .  S
O336        C355   1.283       .  A
O337        C354   1.281       .  A
O338       Zr346   2.406       .  S
O338        C353   1.279       .  A
O339       Zr344   2.389       .  S
O339       Zr346   2.384       .  S
O340       Zr345   2.390       .  S
O340       Zr346   2.372       .  S
O340        H375   0.966       .  S
O341       Zr344   2.398       .  S
O341       Zr361   2.387       .  S
O341        H378   0.965       .  S
O342       Zr345   2.392       .  S
O342       Zr361   2.392       .  S
Zr343       O368   2.442       .  S
Zr343       O362   2.435       .  S
Zr343       O370   2.434       .  S
Zr343       O358   2.435       .  S
Zr343       O349   2.401       .  S
Zr343       O350   2.403       .  S
Zr343       O351   2.377       .  S
Zr343       O352   2.382       .  S
Zr344       O363   2.437       .  S
Zr344       O356   2.434   1_545  S
Zr344       O357   2.421   1_545  S
Zr344       O350   2.397       .  S
Zr344       O351   2.389       .  S
Zr345       O347   2.436       .  S
Zr345       O369   2.435       .  S
Zr345       O371   2.445       .  S
Zr345       O349   2.390       .  S
Zr345       O352   2.386       .  S
Zr346       O372   2.436       .  S
Zr346       O373   2.434       .  S
Zr346       O348   2.435       .  S
Zr346       O349   2.393       .  S
Zr346       O350   2.390       .  S
O347        H384   0.990       .  S
O348        H379   0.990       .  S
O348        H393   0.990   1_545  S
O350        H376   0.966       .  S
O351       Zr361   2.373       .  S
O352       Zr361   2.364       .  S
O352        H377   0.965       .  S
C353       C1084   1.485       .  S
C354       C1117   1.484       .  S
C355        C976   1.489       .  S
O356        H392   0.990       .  S
O357        C359   1.283       .  A
O358        C359   1.287   1_545  A
C359       C1105   1.488       .  S
O360       Zr361   2.437       .  S
O360        H389   0.990       .  S
Zr361       O364   2.436       .  S
Zr361       O365   2.440   1_655  S
Zr361       O366   2.423       .  S
O362        C367   1.286       .  A
O363        H380   0.990       .  S
O363        H395   0.990       .  S
O364        H381   0.990       .  S
O365        H385   0.990       .  S
O365        H394   0.990   1_455  S
O366        C367   1.282       .  A
C367       C1069   1.492   1_655  S
O368        H387   0.991       .  S
O368        H391   0.990       .  S
O369        H383   0.990       .  S
O369        H390   0.990       .  S
O370        C374   1.286       .  A
O371        C374   1.289       .  A
O372        H382   0.990       .  S
O373        H386   0.990       .  S
C374       C1000   1.493       .  S
Zr397       O398   2.438       .  S
Zr397       O399   2.420       .  S
Zr397       O400   2.440       .  S
Zr397       O403   2.427       .  S
Zr397       O405   2.376       .  S
Zr397       O406   2.381       .  S
Zr397       O407   2.399       .  S
Zr397       O408   2.397       .  S
O398        H454   0.991       .  S
O398        H462   0.990       .  S
O399        C419   1.281       .  A
O400        C421   1.287       .  A
O401       Zr411   2.416       .  S
O401        C420   1.283       .  A
O402       Zr410   2.431       .  S
O402        C421   1.285       .  A
O403        C420   1.284       .  A
O404       Zr412   2.429       .  S
O404        C419   1.284       .  A
O405       Zr410   2.388       .  S
O405       Zr412   2.370       .  S
O406       Zr411   2.388       .  S
O406       Zr412   2.371       .  S
O406        H441   0.966       .  S
O407       Zr410   2.395       .  S
O407       Zr427   2.394       .  S
O407        H444   0.966       .  S
O408       Zr411   2.392       .  S
O408       Zr427   2.391       .  S
Zr409       O434   2.450       .  S
Zr409       O428   2.434       .  S
Zr409       O436   2.438       .  S
Zr409       O424   2.425       .  S
Zr409       O415   2.397       .  S
Zr409       O416   2.409       .  S
Zr409       O417   2.380       .  S
Zr409       O418   2.380       .  S
Zr410       O429   2.439       .  S
Zr410       O422   2.436       .  S
Zr410       O423   2.427       .  S
Zr410       O416   2.398       .  S
Zr410       O417   2.385       .  S
Zr411       O413   2.434       .  S
Zr411       O435   2.440       .  S
Zr411       O437   2.427       .  S
Zr411       O415   2.385       .  S
Zr411       O418   2.383       .  S
Zr412       O438   2.435       .  S
Zr412       O439   2.436       .  S
Zr412       O414   2.435       .  S
Zr412       O415   2.395       .  S
Zr412       O416   2.400       .  S
O413        H450   0.990       .  S
O414        H445   0.990       .  S
O414        H459   0.990       .  S
O416        H442   0.966       .  S
O417       Zr427   2.369       .  S
O418       Zr427   2.385       .  S
O418        H443   0.966       .  S
C419        C949   1.489       .  S
C420        C925   1.482       .  S
C421        C961   1.496       .  S
O422        H458   0.990       .  S
O423        C425   1.285       .  A
O424        C425   1.282       .  A
C425        C916   1.482       .  S
O426       Zr427   2.440       .  S
O426        H455   0.990       .  S
Zr427       O430   2.438       .  S
Zr427       O431   2.436       .  S
Zr427       O432   2.414       .  S
O428        C433   1.286       .  A
O429        H446   0.990       .  S
O429        H461   0.990       .  S
O430        H447   0.990       .  S
O431        H451   0.990       .  S
O431        H460   0.990       .  S
O432        C433   1.280       .  A
C433        C937   1.483       .  S
O434        H453   0.990       .  S
O434        H457   0.990       .  S
O435        H449   0.990       .  S
O435        H456   0.990       .  S
O436        C440   1.286       .  A
O437        C440   1.284       .  A
O438        H448   0.990       .  S
O439        H452   0.990       .  S
C440       C1156   1.492       .  S
Zr463       O464   2.440       .  S
Zr463       O465   2.419       .  S
Zr463       O466   2.427       .  S
Zr463       O469   2.429       .  S
Zr463       O471   2.380       .  S
Zr463       O472   2.380       .  S
Zr463       O473   2.399       .  S
Zr463       O474   2.394       .  S
O464        H520   0.990       .  S
O464        H528   0.990       .  S
O465        C485   1.283       .  A
O466        C487   1.283       .  A
O467       Zr477   2.424       .  S
O467        C486   1.284       .  A
O468       Zr476   2.444       .  S
O468        C487   1.288       .  A
O469        C486   1.285       .  A
O470       Zr478   2.425       .  S
O470        C485   1.283       .  A
O471       Zr476   2.385       .  S
O471       Zr478   2.370       .  S
O472       Zr477   2.384       .  S
O472       Zr478   2.373       .  S
O472        H507   0.966       .  S
O473       Zr476   2.393       .  S
O473       Zr493   2.394       .  S
O473        H510   0.966       .  S
O474       Zr477   2.388       .  S
O474       Zr493   2.389       .  S
Zr475       O500   2.453       .  S
Zr475       O494   2.438       .  S
Zr475       O502   2.448       .  S
Zr475       O490   2.425       .  S
Zr475       O481   2.396       .  S
Zr475       O482   2.411       .  S
Zr475       O483   2.382       .  S
Zr475       O484   2.381       .  S
Zr476       O495   2.436       .  S
Zr476       O488   2.434       .  S
Zr476       O489   2.429       .  S
Zr476       O482   2.398       .  S
Zr476       O483   2.387       .  S
Zr477       O479   2.435       .  S
Zr477       O501   2.439       .  S
Zr477       O503   2.421       .  S
Zr477       O481   2.388       .  S
Zr477       O484   2.383       .  S
Zr478       O504   2.433       .  S
Zr478       O505   2.435       .  S
Zr478       O480   2.436       .  S
Zr478       O481   2.392       .  S
Zr478       O482   2.394       .  S
O479        H516   0.990   1_655  S
O480        H511   0.990       .  S
O480        H525   0.990       .  S
O482        H508   0.966       .  S
O483       Zr493   2.371       .  S
O484       Zr493   2.383       .  S
O484        H509   0.966       .  S
C485        C889   1.488       .  S
C486        C865   1.485   1_655  S
C487        C964   1.495       .  S
O488        H524   0.990       .  S
O489        C491   1.285       .  A
O490        C491   1.283       .  A
C491        C880   1.480       .  S
O492       Zr493   2.438       .  S
O492        H521   0.990       .  S
Zr493       O496   2.437       .  S
Zr493       O497   2.437       .  S
Zr493       O498   2.412       .  S
O494        C499   1.286       .  A
O495        H512   0.990       .  S
O495        H527   0.990       .  S
O496        H513   0.990       .  S
O497        H517   0.990       .  S
O497        H526   0.990       .  S
O498        C499   1.281       .  A
C499        C901   1.485       .  S
O500        H519   0.990       .  S
O500        H523   0.990       .  S
O501        H515   0.990       .  S
O501        H522   0.990       .  S
O502        C506   1.288       .  A
O503        C506   1.283       .  A
O504        H514   0.990       .  S
O505        H518   0.990       .  S
C506       C1093   1.495       .  S
Zr529       O530   2.436       .  S
Zr529       O531   2.419       .  S
Zr529       O532   2.441       .  S
Zr529       O535   2.427       .  S
Zr529       O537   2.375       .  S
Zr529       O538   2.383       .  S
Zr529       O539   2.402       .  S
Zr529       O540   2.399       .  S
O530        H586   0.990       .  S
O530        H594   0.990       .  S
O531        C551   1.282   1_545  A
O532        C553   1.287       .  A
O533       Zr543   2.411       .  S
O533        C552   1.282       .  A
O534       Zr542   2.438       .  S
O534        C553   1.287       .  A
O535        C552   1.284       .  A
O536       Zr544   2.426   1_565  S
O536        C551   1.284       .  A
O537       Zr542   2.387       .  S
O537       Zr544   2.368       .  S
O538       Zr543   2.387       .  S
O538       Zr544   2.371       .  S
O538        H573   0.966       .  S
O539       Zr542   2.397       .  S
O539       Zr559   2.397       .  S
O539        H576   0.967       .  S
O540       Zr543   2.390       .  S
O540       Zr559   2.388       .  S
Zr541       O566   2.449       .  S
Zr541       O560   2.424       .  S
Zr541       O568   2.442       .  S
Zr541       O556   2.420       .  S
Zr541       O547   2.394       .  S
Zr541       O548   2.406       .  S
Zr541       O549   2.384       .  S
Zr541       O550   2.383       .  S
Zr542       O561   2.438       .  S
Zr542       O554   2.434       .  S
Zr542       O555   2.432       .  S
Zr542       O548   2.398       .  S
Zr542       O549   2.384       .  S
Zr543       O545   2.436       .  S
Zr543       O567   2.437       .  S
Zr543       O569   2.428       .  S
Zr543       O547   2.385       .  S
Zr543       O550   2.379       .  S
Zr544       O570   2.434       .  S
Zr544       O571   2.435       .  S
Zr544       O546   2.435   1_545  S
Zr544       O547   2.393       .  S
Zr544       O548   2.396       .  S
O545        H582   0.990       .  S
O546        H577   0.990       .  S
O546        H591   0.990       .  S
O548        H574   0.966       .  S
O549       Zr559   2.371       .  S
O550       Zr559   2.388       .  S
O550        H575   0.966       .  S
C551        C868   1.485       .  S
C552        C841   1.483       .  S
C553        C829   1.498   1_545  S
O554        H590   0.990       .  S
O555        C557   1.286       .  A
O556        C557   1.282       .  A
C557        C856   1.488       .  S
O558       Zr559   2.440       .  S
O558        H587   0.990       .  S
Zr559       O562   2.438       .  S
Zr559       O563   2.439       .  S
Zr559       O564   2.412       .  S
O560        C565   1.283       .  A
O561        H578   0.990       .  S
O561        H593   0.990       .  S
O562        H579   0.990       .  S
O563        H583   0.990       .  S
O563        H592   0.990       .  S
O564        C565   1.281       .  A
C565        C877   1.475       .  S
O566        H585   0.990       .  S
O566        H589   0.990       .  S
O567        H581   0.990       .  S
O567        H588   0.990       .  S
O568        C572   1.286       .  A
O569        C572   1.283       .  A
O570        H580   0.990       .  S
O571        H584   0.990       .  S
C572       C1045   1.495       .  S
Zr595       O596   2.438       .  S
Zr595       O597   2.421       .  S
Zr595       O598   2.446       .  S
Zr595       O601   2.438       .  S
Zr595       O603   2.381       .  S
Zr595       O604   2.384       .  S
Zr595       O605   2.400       .  S
Zr595       O606   2.401       .  S
O596        H652   0.990       .  S
O596        H660   0.990       .  S
O597        C617   1.283       .  A
O598        C619   1.287       .  A
O599       Zr609   2.412       .  S
O599        C618   1.281       .  A
O600       Zr608   2.441       .  S
O600        C619   1.286       .  A
O601        C618   1.287       .  A
O602       Zr610   2.424       .  S
O602        C617   1.282       .  A
O603       Zr608   2.387       .  S
O603       Zr610   2.373       .  S
O604       Zr609   2.393       .  S
O604       Zr610   2.371       .  S
O604        H639   0.966       .  S
O605       Zr608   2.396       .  S
O605       Zr625   2.396       .  S
O605        H642   0.966       .  S
O606       Zr609   2.393       .  S
O606       Zr625   2.389       .  S
Zr607       O632   2.448       .  S
Zr607       O626   2.437       .  S
Zr607       O634   2.445       .  S
Zr607       O622   2.423       .  S
Zr607       O613   2.393       .  S
Zr607       O614   2.410       .  S
Zr607       O615   2.384       .  S
Zr607       O616   2.380       .  S
Zr608       O627   2.436       .  S
Zr608       O620   2.435       .  S
Zr608       O621   2.427       .  S
Zr608       O614   2.400       .  S
Zr608       O615   2.389       .  S
Zr609       O611   2.436       .  S
Zr609       O633   2.436       .  S
Zr609       O635   2.434       .  S
Zr609       O613   2.383       .  S
Zr609       O616   2.378       .  S
Zr610       O636   2.436       .  S
Zr610       O637   2.437       .  S
Zr610       O612   2.437       .  S
Zr610       O613   2.394       .  S
Zr610       O614   2.395       .  S
O611        H648   0.990   1_455  S
O612        H643   0.990       .  S
O612        H657   0.990       .  S
O614        H640   0.966       .  S
O615       Zr625   2.374       .  S
O616       Zr625   2.383       .  S
O616        H641   0.966       .  S
C617        C817   1.488   1_565  S
C618        C952   1.489   1_455  S
C619        C832   1.500       .  S
O620        H656   0.990       .  S
O621        C623   1.285       .  A
O622        C623   1.283       .  A
C623        C940   1.482       .  S
O624       Zr625   2.441       .  S
O624        H653   0.990       .  S
Zr625       O628   2.437       .  S
Zr625       O629   2.440       .  S
Zr625       O630   2.416       .  S
O626        C631   1.286       .  A
O627        H644   0.990       .  S
O627        H659   0.990       .  S
O628        H645   0.990       .  S
O629        H649   0.990       .  S
O629        H658   0.990       .  S
O630        C631   1.283       .  A
C631        C805   1.489       .  S
O632        H651   0.990       .  S
O632        H655   0.990       .  S
O633        H647   0.990       .  S
O633        H654   0.990       .  S
O634        C638   1.287       .  A
O635        C638   1.285       .  A
O636        H646   0.990       .  S
O637        H650   0.990       .  S
C638       C1012   1.499       .  S
Zr661       O662   2.438       .  S
Zr661       O663   2.420       .  S
Zr661       O664   2.441       .  S
Zr661       O667   2.433       .  S
Zr661       O669   2.379       .  S
Zr661       O670   2.382       .  S
Zr661       O671   2.402       .  S
Zr661       O672   2.399       .  S
O662        H718   0.990       .  S
O662        H726   0.990       .  S
O663        C683   1.282       .  A
O664        C685   1.287       .  A
O665       Zr675   2.418       .  S
O665        C684   1.283       .  A
O666       Zr674   2.439       .  S
O666        C685   1.286       .  A
O667        C684   1.285       .  A
O668       Zr676   2.423       .  S
O668        C683   1.282       .  A
O669       Zr674   2.385       .  S
O669       Zr676   2.371       .  S
O670       Zr675   2.388       .  S
O670       Zr676   2.371       .  S
O670        H705   0.966       .  S
O671       Zr674   2.395       .  S
O671       Zr691   2.397       .  S
O671        H708   0.967       .  S
O672       Zr675   2.387       .  S
O672       Zr691   2.384       .  S
Zr673       O698   2.451       .  S
Zr673       O692   2.435       .  S
Zr673       O700   2.450       .  S
Zr673       O688   2.427       .  S
Zr673       O679   2.394       .  S
Zr673       O680   2.410       .  S
Zr673       O681   2.385       .  S
Zr673       O682   2.385       .  S
Zr674       O693   2.437       .  S
Zr674       O686   2.434       .  S
Zr674       O687   2.425       .  S
Zr674       O680   2.397       .  S
Zr674       O681   2.384       .  S
Zr675       O677   2.434       .  S
Zr675       O699   2.438       .  S
Zr675       O701   2.429       .  S
Zr675       O679   2.385       .  S
Zr675       O682   2.383       .  S
Zr676       O702   2.435       .  S
Zr676       O703   2.435       .  S
Zr676       O678   2.437       .  S
Zr676       O679   2.391       .  S
Zr676       O680   2.396       .  S
O677        H714   0.990       .  S
O678        H709   0.990   1_455  S
O678        H723   0.990   1_455  S
O680        H706   0.966       .  S
O681       Zr691   2.373       .  S
O682       Zr691   2.388       .  S
O682        H707   0.966       .  S
C683        C928   1.486   1_455  S
C684        C820   1.487       .  S
C685        C796   1.499       .  S
O686        H722   0.990       .  S
O687        C689   1.284       .  A
O688        C689   1.283       .  A
C689        C808   1.489       .  S
O690       Zr691   2.440       .  S
O690        H719   0.990       .  S
Zr691       O694   2.437       .  S
Zr691       O695   2.441       .  S
Zr691       O696   2.408       .  S
O692        C697   1.286       .  A
O693        H710   0.990       .  S
O693        H725   0.990       .  S
O694        H711   0.990       .  S
O695        H715   0.990       .  S
O695        H724   0.989       .  S
O696        C697   1.280       .  A
C697        C913   1.482       .  S
O698        H717   0.990       .  S
O698        H721   0.990       .  S
O699        H713   0.990       .  S
O699        H720   0.990       .  S
O700        C704   1.288       .  A
O701        C704   1.285       .  A
O702        H712   0.990       .  S
O703        H716   0.990       .  S
C704        C988   1.498       .  S
Zr727       O728   2.438       .  S
Zr727       O729   2.412       .  S
Zr727       O730   2.447       .  S
Zr727       O733   2.430       .  S
Zr727       O735   2.380       .  S
Zr727       O736   2.386       .  S
Zr727       O737   2.397       .  S
Zr727       O738   2.402       .  S
O728        H784   0.990       .  S
O728        H792   0.990       .  S
O729        C749   1.281       .  A
O730        C751   1.287       .  A
O731       Zr741   2.424   1_565  S
O731        C750   1.284       .  A
O732       Zr740   2.434       .  S
O732        C751   1.286       .  A
O733        C750   1.285   1_545  A
O734       Zr742   2.426       .  S
O734        C749   1.283       .  A
O735       Zr740   2.387       .  S
O735       Zr742   2.374       .  S
O736       Zr741   2.387       .  S
O736       Zr742   2.375       .  S
O736        H771   0.966       .  S
O737       Zr740   2.393       .  S
O737       Zr757   2.401       .  S
O737        H774   0.966       .  S
O738       Zr741   2.389       .  S
O738       Zr757   2.390       .  S
Zr739       O764   2.439       .  S
Zr739       O758   2.432       .  S
Zr739       O766   2.436       .  S
Zr739       O754   2.429       .  S
Zr739       O745   2.396       .  S
Zr739       O746   2.408       .  S
Zr739       O747   2.378       .  S
Zr739       O748   2.382       .  S
Zr740       O759   2.434       .  S
Zr740       O752   2.436       .  S
Zr740       O753   2.423       .  S
Zr740       O746   2.402       .  S
Zr740       O747   2.388       .  S
Zr741       O743   2.434   1_545  S
Zr741       O765   2.440       .  S
Zr741       O767   2.428       .  S
Zr741       O745   2.386       .  S
Zr741       O748   2.388       .  S
Zr742       O768   2.437       .  S
Zr742       O769   2.437       .  S
Zr742       O744   2.436       .  S
Zr742       O745   2.389       .  S
Zr742       O746   2.397       .  S
O743        H780   0.990       .  S
O744        H775   0.990   1_655  S
O744        H789   0.990   1_655  S
O746        H772   0.966       .  S
O747       Zr757   2.375       .  S
O748       Zr757   2.385       .  S
O748        H773   0.966       .  S
C749        C844   1.484   1_655  S
C750        C892   1.489       .  S
C751        C793   1.500       .  S
O752        H788   0.990       .  S
O753        C755   1.283       .  A
O754        C755   1.283       .  A
C755        C904   1.485       .  S
O756       Zr757   2.441       .  S
O756        H785   0.990       .  S
Zr757       O760   2.436       .  S
Zr757       O761   2.443       .  S
Zr757       O762   2.412       .  S
O758        C763   1.284       .  A
O759        H776   0.990       .  S
O759        H791   0.990       .  S
O760        H777   0.990       .  S
O761        H781   0.991       .  S
O761        H790   0.989       .  S
O762        C763   1.280       .  A
C763        C853   1.489       .  S
O764        H783   0.990       .  S
O764        H787   0.990       .  S
O765        H779   0.990   1_545  S
O765        H786   0.990       .  S
O766        C770   1.285       .  A
O767        C770   1.285       .  A
O768        H778   0.990       .  S
O769        H782   0.990       .  S
C770        C973   1.492       .  S
C793        C794   1.409       .  A
C793        C798   1.414       .  A
C794        C795   1.405   1_654  A
C794        H799   1.083       .  S
C795        C796   1.415       .  A
C795        O800   1.372       .  S
C796        C797   1.408       .  A
C797        C798   1.404   1_456  A
C797        H801   1.083       .  S
C798        O802   1.371       .  S
O800        H804   0.992       .  S
O802        H803   0.992       .  S
C805        C806   1.407       .  A
C805        C810   1.412       .  A
C806        C807   1.394       .  A
C806        H811   1.083       .  S
C807        C808   1.412       .  A
C807        O812   1.372       .  S
C808        C809   1.409       .  A
C809        C810   1.403       .  A
C809        H813   1.083       .  S
C810        O814   1.371       .  S
O812        H816   0.992       .  S
O814        H815   0.991       .  S
C817        C818   1.408       .  A
C817        C822   1.413       .  A
C818        C819   1.401       .  A
C818        H823   1.083   1_545  S
C819        C820   1.412       .  A
C819        O824   1.372       .  S
C820        C821   1.407       .  A
C821        C822   1.396       .  A
C821        H825   1.083       .  S
C822        O826   1.372       .  S
O824        H828   0.992       .  S
O826        H827   0.992       .  S
C829        C830   1.408       .  A
C829        C834   1.414       .  A
C830        C831   1.404   1_554  A
C830        H835   1.083       .  S
C831        C832   1.416       .  A
C831        O836   1.371       .  S
C832        C833   1.408       .  A
C833        C834   1.404   1_556  A
C833        H837   1.083       .  S
C834        O838   1.371   1_565  S
O836        H840   0.992       .  S
O838        H839   0.992       .  S
C841        C842   1.407       .  A
C841        C846   1.410       .  A
C842        C843   1.395       .  A
C842        H847   1.083       .  S
C843        C844   1.411       .  A
C843        O848   1.372       .  S
C844        C845   1.408       .  A
C845        C846   1.398       .  A
C845        H849   1.083       .  S
C846        O850   1.372       .  S
O848        H852   0.992       .  S
O850        H851   0.992       .  S
C853        C854   1.406       .  A
C853        C858   1.415       .  A
C854        C855   1.401       .  A
C854        H859   1.083       .  S
C855        C856   1.415       .  A
C855        O860   1.372       .  S
C856        C857   1.404       .  A
C857        C858   1.395       .  A
C857        H861   1.083       .  S
C858        O862   1.372       .  S
O860        H864   0.992       .  S
O862        H863   0.992       .  S
C865        C866   1.406       .  A
C865        C870   1.412       .  A
C866        C867   1.400       .  A
C866        H871   1.084       .  S
C867        C868   1.413       .  A
C867        O872   1.372       .  S
C868        C869   1.405       .  A
C869        C870   1.396       .  A
C869        H873   1.084       .  S
C870        O874   1.372       .  S
O872        H876   0.992       .  S
O874        H875   0.992       .  S
C877        C878   1.404       .  A
C877        C882   1.409       .  A
C878        C879   1.395       .  A
C878        H883   1.084       .  S
C879        C880   1.410       .  A
C879        O884   1.372       .  S
C880        C881   1.407       .  A
C881        C882   1.399       .  A
C881        H885   1.084       .  S
C882        O886   1.372       .  S
O884        H888   0.992       .  S
O886        H887   0.992       .  S
C889        C890   1.408       .  A
C889        C894   1.412       .  A
C890        C891   1.400       .  A
C890        H895   1.083       .  S
C891        C892   1.413       .  A
C891        O896   1.372       .  S
C892        C893   1.407       .  A
C893        C894   1.396       .  A
C893        H897   1.083       .  S
C894        O898   1.372       .  S
O896        H900   0.992       .  S
O898        H899   0.992       .  S
C901        C902   1.407       .  A
C901        C906   1.411       .  A
C902        C903   1.397       .  A
C902        H907   1.084       .  S
C903        C904   1.411       .  A
C903        O908   1.372       .  S
C904        C905   1.407       .  A
C905        C906   1.400       .  A
C905        H909   1.083       .  S
C906        O910   1.371       .  S
O908        H912   0.992       .  S
O910        H911   0.992       .  S
C913        C914   1.405       .  A
C913        C918   1.413       .  A
C914        C915   1.401       .  A
C914        H919   1.084       .  S
C915        C916   1.413       .  A
C915        O920   1.372       .  S
C916        C917   1.403       .  A
C917        C918   1.394       .  A
C917        H921   1.084       .  S
C918        O922   1.372       .  S
O920        H924   0.992       .  S
O922        H923   0.992       .  S
C925        C926   1.405   1_565  A
C925        C930   1.411   1_565  A
C926        C927   1.395       .  A
C926        H931   1.084       .  S
C927        C928   1.413       .  A
C927        O932   1.372       .  S
C928        C929   1.408       .  A
C929        C930   1.399       .  A
C929        H933   1.083       .  S
C930        O934   1.372   1_545  S
O932        H936   0.992       .  S
O934        H935   0.992       .  S
C937        C938   1.403       .  A
C937        C942   1.414       .  A
C938        C939   1.397       .  A
C938        H943   1.083       .  S
C939        C940   1.412       .  A
C939        O944   1.371       .  S
C940        C941   1.404       .  A
C941        C942   1.398       .  A
C941        H945   1.084       .  S
C942        O946   1.372       .  S
O944        H948   0.992       .  S
O946        H947   0.992       .  S
C949        C950   1.404       .  A
C949        C954   1.415       .  A
C950        C951   1.396       .  A
C950        H955   1.083       .  S
C951        C952   1.416       .  A
C951        O956   1.372       .  S
C952        C953   1.406       .  A
C953        C954   1.401       .  A
C953        H957   1.083       .  S
C954        O958   1.372       .  S
O956        H960   0.992       .  S
O958        H959   0.991       .  S
C961        C962   1.407       .  A
C961        C966   1.415       .  A
C962        C963   1.402   1_556  A
C962        H967   1.083       .  S
C963        C964   1.416       .  A
C963        O968   1.371       .  S
C964        C965   1.406       .  A
C965        C966   1.402   1_554  A
C965        H969   1.083       .  S
C966        O970   1.371       .  S
O968        H972   0.992       .  S
O970        H971   0.992       .  S
C973        C974   1.407       .  A
C973        C978   1.414       .  A
C974        C975   1.399       .  A
C974        H979   1.083       .  S
C975        C976   1.412       .  A
C975        O980   1.371       .  S
C976        C977   1.407       .  A
C977        C978   1.401       .  A
C977        H981   1.083       .  S
C978        O982   1.370       .  S
O980        H984   0.992   1_545  S
O982        H983   0.992       .  S
C985        C986   1.408       .  A
C985        C990   1.416       .  A
C986        C987   1.402       .  A
C986        H991   1.083       .  S
C987        C988   1.415       .  A
C987        O992   1.372       .  S
C988        C989   1.408       .  A
C989        C990   1.404       .  A
C989        H993   1.083       .  S
C990        O994   1.371       .  S
O992        H996   0.992       .  S
O994        H995   0.992       .  S
C997        C998   1.408       .  A
C997       C1002   1.416       .  A
C998        C999   1.404   1_455  A
C998       H1003   1.083       .  S
C999       C1000   1.414       .  A
C999       O1004   1.372       .  S
C1000      C1001   1.405       .  A
C1001      C1002   1.401   1_655  A
C1001      H1005   1.084       .  S
C1002      O1006   1.372       .  S
O1004      H1008   0.992       .  S
O1006      H1007   0.992       .  S
C1009      C1010   1.408       .  A
C1009      C1014   1.414       .  A
C1010      C1011   1.403       .  A
C1010      H1015   1.083       .  S
C1011      C1012   1.415       .  A
C1011      O1016   1.372       .  S
C1012      C1013   1.409       .  A
C1013      C1014   1.404       .  A
C1013      H1017   1.083       .  S
C1014      O1018   1.371       .  S
O1016      H1020   0.992       .  S
O1018      H1019   0.992       .  S
C1021      C1022   1.404       .  A
C1021      C1026   1.414       .  A
C1022      C1023   1.399       .  A
C1022      H1027   1.084       .  S
C1023      C1024   1.413       .  A
C1023      O1028   1.371       .  S
C1024      C1025   1.404       .  A
C1025      C1026   1.400       .  A
C1025      H1029   1.084       .  S
C1026      O1030   1.372       .  S
O1028      H1032   0.992       .  S
O1030      H1031   0.992       .  S
C1033      C1034   1.405       .  A
C1033      C1038   1.415       .  A
C1034      C1035   1.400       .  A
C1034      H1039   1.083       .  S
C1035      C1036   1.414       .  A
C1035      O1040   1.372       .  S
C1036      C1037   1.403       .  A
C1037      C1038   1.399       .  A
C1037      H1041   1.084       .  S
C1038      O1042   1.372   1_545  S
O1040      H1044   0.992       .  S
O1042      H1043   0.992   1_565  S
C1045      C1046   1.407       .  A
C1045      C1050   1.414       .  A
C1046      C1047   1.403       .  A
C1046      H1051   1.083       .  S
C1047      C1048   1.415       .  A
C1047      O1052   1.370       .  S
C1048      C1049   1.408       .  A
C1049      C1050   1.402       .  A
C1049      H1053   1.083       .  S
C1050      O1054   1.372       .  S
O1052      H1056   0.992       .  S
O1054      H1055   0.992       .  S
C1057      C1058   1.408       .  A
C1057      C1062   1.417       .  A
C1058      C1059   1.406       .  A
C1058      H1063   1.083       .  S
C1059      C1060   1.416       .  A
C1059      O1064   1.372       .  S
C1060      C1061   1.407       .  A
C1061      C1062   1.406       .  A
C1061      H1065   1.083       .  S
C1062      O1066   1.371       .  S
O1064      H1068   0.992       .  S
O1066      H1067   0.992       .  S
C1069      C1070   1.408       .  A
C1069      C1074   1.415       .  A
C1070      C1071   1.403       .  A
C1070      H1075   1.083       .  S
C1071      C1072   1.413       .  A
C1071      O1076   1.372       .  S
C1072      C1073   1.405       .  A
C1073      C1074   1.397       .  A
C1073      H1077   1.083       .  S
C1074      O1078   1.372       .  S
O1076      H1080   0.992       .  S
O1078      H1079   0.992       .  S
C1081      C1082   1.404       .  A
C1081      C1086   1.413       .  A
C1082      C1083   1.395       .  A
C1082      H1087   1.084       .  S
C1083      C1084   1.414       .  A
C1083      O1088   1.372       .  S
C1084      C1085   1.406       .  A
C1085      C1086   1.398       .  A
C1085      H1089   1.083       .  S
C1086      O1090   1.372       .  S
O1088      H1092   0.992       .  S
O1090      H1091   0.992       .  S
C1093      C1094   1.406       .  A
C1093      C1098   1.415       .  A
C1094      C1095   1.406       .  A
C1094      H1099   1.083       .  S
C1095      C1096   1.416       .  A
C1095      O1100   1.371       .  S
C1096      C1097   1.407       .  A
C1097      C1098   1.400       .  A
C1097      H1101   1.083       .  S
C1098      O1102   1.372       .  S
O1100      H1104   0.992       .  S
O1102      H1103   0.992       .  S
C1105      C1106   1.406       .  A
C1105      C1110   1.414       .  A
C1106      C1107   1.399       .  A
C1106      H1111   1.083       .  S
C1107      C1108   1.413       .  A
C1107      O1112   1.372       .  S
C1108      C1109   1.406       .  A
C1109      C1110   1.397       .  A
C1109      H1113   1.083       .  S
C1110      O1114   1.372       .  S
O1112      H1116   0.992       .  S
O1114      H1115   0.992       .  S
C1117      C1118   1.404       .  A
C1117      C1122   1.414       .  A
C1118      C1119   1.397       .  A
C1118      H1123   1.084       .  S
C1119      C1120   1.414       .  A
C1119      O1124   1.372       .  S
C1120      C1121   1.405       .  A
C1121      C1122   1.399       .  A
C1121      H1125   1.084       .  S
C1122      O1126   1.372       .  S
O1124      H1128   0.992       .  S
O1126      H1127   0.992       .  S
C1129      C1130   1.407       .  A
C1129      C1134   1.413       .  A
C1130      C1131   1.399       .  A
C1130      H1135   1.083       .  S
C1131      C1132   1.413       .  A
C1131      O1136   1.372       .  S
C1132      C1133   1.405       .  A
C1133      C1134   1.395       .  A
C1133      H1137   1.083       .  S
C1134      O1138   1.371       .  S
O1136      H1140   0.992       .  S
O1138      H1139   0.992       .  S
C1141      C1142   1.404       .  A
C1141      C1146   1.412       .  A
C1142      C1143   1.399       .  A
C1142      H1147   1.084       .  S
C1143      C1144   1.413       .  A
C1143      O1148   1.372       .  S
C1144      C1145   1.403       .  A
C1145      C1146   1.398       .  A
C1145      H1149   1.084       .  S
C1146      O1150   1.372       .  S
O1148      H1152   0.992       .  S
O1150      H1151   0.992       .  S
C1153      C1154   1.408       .  A
C1153      C1158   1.416       .  A
C1154      C1155   1.403       .  A
C1154      H1159   1.083       .  S
C1155      C1156   1.413       .  A
C1155      O1160   1.372       .  S
C1156      C1157   1.406       .  A
C1157      C1158   1.402       .  A
C1157      H1161   1.083       .  S
C1158      O1162   1.370       .  S
O1160      H1164   0.992       .  S
O1162      H1163   0.992       .  S
C1165      C1166   1.403       .  A
C1165      C1170   1.415       .  A
C1166      C1167   1.398       .  A
C1166      H1171   1.084       .  S
C1167      C1168   1.416       .  A
C1167      O1172   1.371       .  S
C1168      C1169   1.404       .  A
C1169      C1170   1.399       .  A
C1169      H1173   1.083       .  S
C1170      O1174   1.372       .  S
O1172      H1176   0.992       .  S
O1174      H1175   0.992       .  S
C1177      C1178   1.406       .  A
C1177      C1182   1.411       .  A
C1178      C1179   1.395       .  A
C1178      H1183   1.083       .  S
C1179      C1180   1.412   1_545  A
C1179      O1184   1.372   1_545  S
C1180      C1181   1.405   1_565  A
C1181      C1182   1.394       .  A
C1181      H1185   1.083       .  S
C1182      O1186   1.372       .  S
O1184      H1188   0.992       .  S
O1186      H1187   0.992       .  S
C1189      C1190   1.405       .  A
C1189      C1194   1.413       .  A
C1190      C1191   1.402       .  A
C1190      H1195   1.083       .  S
C1191      C1192   1.415       .  A
C1191      O1196   1.372       .  S
C1192      C1193   1.402       .  A
C1193      C1194   1.396       .  A
C1193      H1197   1.084       .  S
C1194      O1198   1.371       .  S
O1196      H1200   0.992       .  S
O1198      H1199   0.992       .  S
C1201      C1202   1.406       .  A
C1201      C1206   1.414       .  A
C1202      C1203   1.397       .  A
C1202      H1207   1.083       .  S
C1203      C1204   1.411       .  A
C1203      O1208   1.372       .  S
C1204      C1205   1.405       .  A
C1205      C1206   1.400       .  A
C1205      H1209   1.084       .  S
C1206      O1210   1.372       .  S
O1208      H1212   0.992       .  S
O1210      H1211   0.992       .  S
C1213      C1214   1.409       .  A
C1213      C1218   1.415       .  A
C1214      C1215   1.404       .  A
C1214      H1219   1.083       .  S
C1215      C1216   1.413       .  A
C1215      O1220   1.371       .  S
C1216      C1217   1.407       .  A
C1217      C1218   1.401       .  A
C1217      H1221   1.084       .  S
C1218      O1222   1.372       .  S
O1220      H1224   0.992       .  S
O1222      H1223   0.992       .  S
