geometry optimzed in LAMMPS
_audit_creation_date              2020-12-01 
_audit_creation_method            'lammps2cif' 
_symmetry_space_group_name_H-M    'P1' 
_symmetry_Int_Tables_number       1 
_symmetry_cell_setting            triclinic 
loop_ 
_symmetry_equiv_pos_as_xyz 
  x,y,z 
_cell_length_a                    52.26250298 
_cell_length_b                    52.17933689382056 
_cell_length_c                    57.67756480572647 
_cell_angle_alpha                 89.86745453147124 
_cell_angle_beta                  89.90680381307084 
_cell_angle_gamma                 90.21327455379625 
loop_ 
_atom_site_label 
_atom_site_type_symbol 
_atom_site_fract_x 
_atom_site_fract_y 
_atom_site_fract_z 
_atom_site_charge 
O1          O  0.43858134  0.71264110  0.09024129    -0.82300
C2          C  0.39289399  0.67801536  0.17308628     0.97100
O3          O  0.38133002  0.68017594  0.15388196    -0.71400
O4          O  0.38589722  0.72618307  0.13621452    -0.75000
Al5        Al  0.39255259  0.69325446  0.12418757     1.49000
C6          C  0.39724201  0.74683292  0.13137627     0.92400
O7          O  0.45439475  0.73030693  0.15246947    -0.81200
O8          O  0.46210866  0.66049435  0.12599179    -0.74700
Al9        Al  0.44545288  0.72013515  0.12164166     1.90100
O10         O  0.46377891  0.69146405  0.16408896    -0.73800
O11         O  0.41731684  0.64294163  0.13903018    -0.73700
O12         O  0.41696978  0.67803303  0.17396589    -0.79300
O13         O  0.39482226  0.65977190  0.11116062    -0.77500
O14         O  0.42553325  0.69461000  0.13160632    -1.13700
O15         O  0.39722605  0.70599874  0.09318093    -0.72900
C16         C  0.41695914  0.70973453  0.08087485     0.97900
C17         C  0.46521349  0.71542381  0.16662932     0.94300
Al18       Al  0.43890083  0.67027514  0.14925004     1.55600
O19         O  0.41943843  0.74640027  0.12259655    -0.77500
C20         C  0.40275577  0.64024568  0.12181916     0.98400
C21         C  0.47924009  0.67514076  0.11804527     0.93300
O22         O  0.47610066  0.69928142  0.11827860    -0.82800
O23         O  0.46535434  0.69914100  0.86457898    -0.82300
C24         C  0.37878968  0.66922714  0.81848024     0.97100
O25         O  0.40267984  0.66729153  0.81664187    -0.71400
O26         O  0.44830645  0.68590997  0.82034354    -0.75000
Al27       Al  0.42747959  0.66443656  0.83965734     1.49000
C28         C  0.44811697  0.70967595  0.81607056     0.92400
O29         O  0.40649768  0.74262094  0.86200005    -0.81200
O30         O  0.38920787  0.70127713  0.89619296    -0.74700
Al31       Al  0.43342508  0.71748750  0.86255052     1.90100
O32         O  0.37262890  0.72013918  0.85389911    -0.73800
O33         O  0.38463788  0.65487291  0.87973001    -0.73700
O34         O  0.36832987  0.67436632  0.83767641    -0.79300
O35         O  0.40934595  0.63687314  0.85418707    -0.77500
O36         O  0.41402859  0.68988584  0.85619356    -1.13700
O37         O  0.45426027  0.65888990  0.86114664    -0.72900
C38         C  0.47092569  0.67560901  0.86588135     0.97900
C39         C  0.38340818  0.74152837  0.85577120     0.94300
Al40       Al  0.38162820  0.68794045  0.86607549     1.55600
O41         O  0.43904111  0.72526215  0.83059883    -0.77500
C42         C  0.39354851  0.63495517  0.87061009     0.98400
C43         C  0.40969651  0.70802007  0.90620691     0.93300
O44         O  0.42985156  0.71264053  0.89482407    -0.82800
O45         O  0.72501273  0.55721392  0.09441683    -0.82300
C46         C  0.68697311  0.60602546  0.17406399     0.97100
O47         O  0.69054835  0.61697352  0.15470634    -0.71400
O48         O  0.73677763  0.61228916  0.13856522    -0.75000
Al49       Al  0.70460214  0.60469747  0.12587372     1.49000
C50         C  0.75767028  0.60180304  0.13359232     0.92400
O51         O  0.74117525  0.54485804  0.15783409    -0.81200
O52         O  0.67264909  0.53406759  0.12900520    -0.74700
Al53       Al  0.73192897  0.55207877  0.12621160     1.90100
O54         O  0.70202301  0.53528011  0.16850918    -0.73800
O55         O  0.65383876  0.57923226  0.13935754    -0.73700
O56         O  0.68685823  0.58194885  0.17565855    -0.79300
O57         O  0.67180832  0.60179506  0.11199357    -0.77500
O58         O  0.70582945  0.57194659  0.13452383    -1.13700
O59         O  0.71840461  0.59885055  0.09539812    -0.72900
C60         C  0.72204346  0.57837259  0.08415533     0.97900
C61         C  0.72587415  0.53435575  0.17201810     0.94300
Al62       Al  0.68091138  0.55872780  0.15164116     1.55600
O63         O  0.75778345  0.57896788  0.12622462    -0.77500
C64         C  0.65190939  0.59413637  0.12220074     0.98400
C65         C  0.68787999  0.51690390  0.12238110     0.93300
O66         O  0.71188148  0.52053793  0.12375446    -0.82800
O67         O  0.70553112  0.53005667  0.86971544    -0.82300
C68         C  0.69317268  0.61676119  0.81816842     0.97100
O69         O  0.69150719  0.59279722  0.81527872    -0.71400
O70         O  0.69889737  0.54382525  0.82297028    -0.75000
Al71       Al  0.67995019  0.56944018  0.83804191     1.49000
C72         C  0.72237181  0.54002854  0.82066793     0.92400
O73         O  0.75622692  0.58401577  0.86378077    -0.81200
O74         O  0.71163738  0.60465683  0.89879276    -0.74700
Al75       Al  0.72887573  0.55902794  0.86605040     1.90100
O76         O  0.73583057  0.62018162  0.85931998    -0.73800
O77         O  0.66749988  0.60987839  0.87830961    -0.73700
O78         O  0.69277541  0.62664278  0.83823722    -0.79300
O79         O  0.65326261  0.59190367  0.84699241    -0.77500
O80         O  0.70384353  0.58034330  0.85764775    -1.13700
O81         O  0.66758011  0.54510712  0.85966883    -0.72900
C82         C  0.68126934  0.52757580  0.86845704     0.97900
C83         C  0.75634198  0.60774779  0.85921261     0.94300
Al84       Al  0.70218825  0.61252397  0.86791492     1.55600
O85         O  0.73786129  0.54984200  0.83478050    -0.77500
C86         C  0.64924751  0.60504073  0.86482183     0.98400
C87         C  0.71880900  0.58485133  0.90939706     0.93300
O88         O  0.72432748  0.56484074  0.89827493    -0.82800
O89         O  0.57050487  0.27194320  0.09666565    -0.82300
C90         C  0.61921461  0.30705141  0.17761813     0.97100
O91         O  0.63035907  0.30303955  0.15845473    -0.71400
O92         O  0.62430050  0.25694380  0.14162669    -0.75000
Al93       Al  0.61815488  0.28979122  0.12924363     1.49000
C94         C  0.61339236  0.23643435  0.13576711     0.92400
O95         O  0.55705012  0.25406798  0.15937085    -0.81200
O96         O  0.54869274  0.32362520  0.13177724    -0.74700
Al97       Al  0.56478317  0.26400433  0.12816668     1.90100
O98         O  0.54850692  0.29322809  0.17084584    -0.73800
O99         O  0.59391057  0.34131621  0.14252109    -0.73700
O100        O  0.59519134  0.30770125  0.17884725    -0.79300
O101        O  0.61664476  0.32293053  0.11566383    -0.77500
O102        O  0.58532507  0.28937533  0.13731492    -1.13700
O103        O  0.61229324  0.27687966  0.09848577    -0.72900
C104        C  0.59194227  0.27440697  0.08677931     0.97900
C105        C  0.54692283  0.26923039  0.17375509     0.94300
Al106      Al  0.57263991  0.31437315  0.15452791     1.55600
O107        O  0.59080979  0.23721093  0.12782204    -0.77500
C108        C  0.60882090  0.34300773  0.12534108     0.98400
C109        C  0.53099926  0.30904149  0.12507052     0.93300
O110        O  0.53388509  0.28489165  0.12595737    -0.82800
O111        O  0.54284143  0.29430452  0.87934814    -0.82300
C112        C  0.63125924  0.30276970  0.82312807     0.97100
O113        O  0.61292131  0.31854616  0.82343357    -0.71400
O114        O  0.56997151  0.29538797  0.81744061    -0.75000
Al115      Al  0.58108115  0.31846699  0.83998891     1.49000
C116        C  0.55401094  0.27750460  0.81937359     0.92400
O117        O  0.58903312  0.24227051  0.85831924    -0.81200
O118        O  0.61000842  0.29712523  0.90168266    -0.74700
Al119      Al  0.56733746  0.26987209  0.86837413     1.90100
O120        O  0.62389547  0.25730560  0.87419589    -0.73800
O121        O  0.62786719  0.32965854  0.87017005    -0.73700
O122        O  0.63622469  0.28912007  0.84065156    -0.79300
O123        O  0.59090630  0.34534255  0.86021717    -0.77500
O124        O  0.58988533  0.29392270  0.85968769    -1.13700
O125        O  0.54749314  0.32289903  0.85186112    -0.72900
C126        C  0.53500488  0.31404661  0.86880732     0.97900
C127        C  0.61165996  0.23893231  0.86536688     0.94300
Al128      Al  0.62175256  0.29337139  0.87077221     1.55600
O129        O  0.55001531  0.26714969  0.83888762    -0.77500
C130        C  0.61293755  0.34847910  0.86844112     0.98400
C131        C  0.59431139  0.28222138  0.91168285     0.93300
O132        O  0.57962015  0.26794548  0.89985596    -0.82800
O133        O  0.28611639  0.42438722  0.09394596    -0.82300
C134        C  0.32006133  0.38255170  0.17865187     0.97100
O135        O  0.31680581  0.36999993  0.16007375    -0.71400
O136        O  0.27148322  0.37352573  0.14176177    -0.75000
Al137      Al  0.30461163  0.37958454  0.12970756     1.49000
C138        C  0.25101606  0.38424135  0.13584061     0.92400
O139        O  0.26796495  0.44199870  0.15569735    -0.81200
O140        O  0.33745460  0.45022218  0.12799819    -0.74700
Al141      Al  0.27809805  0.43226016  0.12504890     1.90100
O142        O  0.30680858  0.45253272  0.16665013    -0.73800
O143        O  0.35546298  0.40607729  0.14236788    -0.73700
O144        O  0.32146524  0.40664325  0.17815181    -0.79300
O145        O  0.33820407  0.38058524  0.11695398    -0.77500
O146        O  0.30366316  0.41299068  0.13563676    -1.13700
O147        O  0.29261950  0.38298101  0.09813495    -0.72900
C148        C  0.28931834  0.40243287  0.08524578     0.97900
C149        C  0.28287503  0.45327795  0.16962468     0.94300
Al150      Al  0.32823959  0.42758947  0.15231321     1.55600
O151        O  0.25170942  0.40603596  0.12624383    -0.77500
C152        C  0.35784332  0.38966369  0.12654367     0.98400
C153        C  0.32234907  0.46712698  0.12058520     0.93300
O154        O  0.29839183  0.46320171  0.12106344    -0.82800
O155        O  0.30031369  0.44891536  0.87725955    -0.82300
C156        C  0.31284824  0.36082386  0.82046438     0.97100
O157        O  0.32830399  0.37946607  0.82197744    -0.71400
O158        O  0.30442623  0.42246579  0.81564806    -0.75000
Al159      Al  0.32673552  0.41098847  0.83890403     1.49000
C160        C  0.28577791  0.43757157  0.81722849     0.92400
O161        O  0.24940785  0.40079873  0.85617605    -0.81200
O162        O  0.30352912  0.37925084  0.89923984    -0.74700
Al163      Al  0.27691993  0.42306350  0.86618300     1.90100
O164        O  0.26504593  0.36543670  0.87030959    -0.73800
O165        O  0.33724869  0.36341529  0.86815228    -0.73700
O166        O  0.29813093  0.35523094  0.83715682    -0.79300
O167        O  0.35288413  0.40115352  0.86007018    -0.77500
O168        O  0.30149551  0.40113642  0.85763288    -1.13700
O169        O  0.33000821  0.44443852  0.85088845    -0.72900
C170        C  0.31957188  0.45757465  0.86648946     0.97900
C171        C  0.24634111  0.37776489  0.86241537     0.94300
Al172      Al  0.30100730  0.36871616  0.86786118     1.55600
O173        O  0.27433772  0.44025217  0.83644561    -0.77500
C174        C  0.35599326  0.37864201  0.86738477     0.98400
C175        C  0.28917220  0.39515279  0.90944440     0.93300
O176        O  0.27545761  0.41050598  0.89774509    -0.82800
O177        O  0.72651945  0.42708262  0.40215124    -0.82300
C178        C  0.69355399  0.38093346  0.31935177     0.97100
O179        O  0.69508435  0.36968231  0.33876594    -0.71400
O180        O  0.74021541  0.37385884  0.35671812    -0.75000
Al181      Al  0.70751747  0.38107198  0.36832616     1.49000
C182        C  0.76099875  0.38463036  0.36175575     0.92400
O183        O  0.74567560  0.44238194  0.33969888    -0.81200
O184        O  0.67561086  0.45130204  0.36549076    -0.74700
Al185      Al  0.73490883  0.43368092  0.37061252     1.90100
O186        O  0.70715583  0.45193750  0.32750298    -0.73800
O187        O  0.65760499  0.40634582  0.35301804    -0.73700
O188        O  0.69304773  0.40504610  0.31821499    -0.79300
O189        O  0.67424352  0.38383786  0.38099064    -0.77500
O190        O  0.70931985  0.41401949  0.36056224    -1.13700
O191        O  0.71957750  0.38574343  0.39932671    -0.72900
C192        C  0.72234126  0.40558696  0.41159906     0.97900
C193        C  0.73115041  0.45307515  0.32512099     0.94300
Al194      Al  0.68535356  0.42751998  0.34259970     1.55600
O195        O  0.76092397  0.40705859  0.37013942    -0.77500
C196        C  0.65487506  0.39171509  0.37026705     0.98400
C197        C  0.69038947  0.46828225  0.37343144     0.93300
O198        O  0.71445425  0.46479879  0.37341525    -0.82800
O199        O  0.70058952  0.45091909  0.61899236    -0.82300
C200        C  0.69331083  0.36229649  0.67639006     0.97100
O201        O  0.67945031  0.38198866  0.67698168    -0.71400
O202        O  0.70633239  0.42372429  0.68165914    -0.75000
Al203      Al  0.68019591  0.41365795  0.66082645     1.49000
C204        C  0.72378488  0.43978495  0.67746687     0.92400
O205        O  0.75400710  0.40413606  0.63663519    -0.81200
O206        O  0.69619178  0.38334546  0.59710011    -0.74700
Al207      Al  0.72582209  0.42615188  0.62841514     1.90100
O208        O  0.73668777  0.36865926  0.62388638    -0.73800
O209        O  0.66464200  0.36795902  0.63013190    -0.73700
O210        O  0.70579081  0.35677473  0.65831304    -0.79300
O211        O  0.65110937  0.40493252  0.64267220    -0.77500
O212        O  0.70231815  0.40397370  0.63916765    -1.13700
O213        O  0.67622919  0.44744933  0.64974048    -0.72900
C214        C  0.68309462  0.45967590  0.63192807     0.97900
C215        C  0.75617558  0.38098203  0.63044039     0.94300
Al216      Al  0.70094757  0.37197536  0.62825050     1.55600
O217        O  0.73118352  0.44392229  0.65699648    -0.77500
C218        C  0.64655908  0.38337530  0.63371293     0.98400
C219        C  0.71115039  0.39837272  0.58643835     0.93300
O220        O  0.72551814  0.41357316  0.59741712    -0.82800
O221        O  0.56972407  0.71690394  0.39744080    -0.82300
C222        C  0.61716943  0.67659814  0.31845536     0.97100
O223        O  0.62851886  0.67942597  0.33772683    -0.71400
O224        O  0.62494014  0.72520036  0.35416388    -0.75000
Al225      Al  0.61660826  0.69311069  0.36688317     1.49000
C226        C  0.61395225  0.74633083  0.35662809     0.92400
O227        O  0.55711057  0.72871832  0.33338652    -0.81200
O228        O  0.54638994  0.66175534  0.36557815    -0.74700
Al229      Al  0.56447965  0.72143913  0.36533218     1.90100
O230        O  0.54645302  0.68925324  0.32509481    -0.73800
O231        O  0.59132560  0.64197328  0.35406637    -0.73700
O232        O  0.59315748  0.67468340  0.31751011    -0.79300
O233        O  0.61365035  0.66028726  0.38103766    -0.77500
O234        O  0.58401909  0.69459557  0.35822218    -1.13700
O235        O  0.61043879  0.70668710  0.39732289    -0.72900
C236        C  0.59020672  0.71247991  0.40825212     0.97900
C237        C  0.54632200  0.71281304  0.32007314     0.94300
Al238      Al  0.57048983  0.66902491  0.34204229     1.55600
O239        O  0.59102296  0.74715085  0.36347316    -0.77500
C240        C  0.60648632  0.64022726  0.37094015     0.98400
C241        C  0.52945845  0.67766031  0.37157465     0.93300
O242        O  0.53336836  0.70155068  0.36923765    -0.82800
O243        O  0.54328226  0.69551279  0.61545559    -0.82300
C244        C  0.63114406  0.67624363  0.67115178     0.97100
O245        O  0.61006941  0.66442663  0.67115046    -0.71400
O246        O  0.57047583  0.69372972  0.67848454    -0.75000
Al247      Al  0.57846897  0.66911740  0.65561123     1.49000
C248        C  0.55549138  0.71244116  0.67606257     0.92400
O249        O  0.59264218  0.74431481  0.63697984    -0.81200
O250        O  0.61057227  0.68933873  0.59374662    -0.74700
Al251      Al  0.56928184  0.71829253  0.62675503     1.90100
O252        O  0.62759698  0.72669477  0.62346292    -0.73800
O253        O  0.62326211  0.65419298  0.62430752    -0.73700
O254        O  0.63660637  0.69184238  0.65514659    -0.79300
O255        O  0.58525712  0.64133886  0.63514325    -0.77500
O256        O  0.58977987  0.69273829  0.63576677    -1.13700
O257        O  0.54430964  0.66863106  0.64469570    -0.72900
C258        C  0.53292471  0.67808199  0.62747600     0.97900
C259        C  0.61614995  0.74570673  0.63198422     0.94300
Al260      Al  0.62170380  0.69075969  0.62496365     1.55600
O261        O  0.55188215  0.72197247  0.65614836    -0.77500
C262        C  0.60708293  0.63638746  0.62694355     0.98400
C263        C  0.59586415  0.70490702  0.58369116     0.93300
O264        O  0.58192064  0.71981768  0.59546038    -0.82800
O265        O  0.28555421  0.55636234  0.39938853    -0.82300
C266        C  0.32613301  0.60097891  0.31853671     0.97100
O267        O  0.32180985  0.61276783  0.33730253    -0.71400
O268        O  0.27542897  0.60933281  0.35315973    -0.75000
Al269      Al  0.30733588  0.60212248  0.36651247     1.49000
C270        C  0.25422985  0.59901591  0.35759575     0.92400
O271        O  0.27090660  0.54109906  0.33688890    -0.81200
O272        O  0.33854914  0.53172971  0.36725506    -0.74700
Al273      Al  0.27936718  0.54974957  0.36799894     1.90100
O274        O  0.31006829  0.53048508  0.32725590    -0.73800
O275        O  0.35811669  0.57607714  0.35470247    -0.73700
O276        O  0.32619477  0.57683797  0.31777533    -0.79300
O277        O  0.33981000  0.59980555  0.38084876    -0.77500
O278        O  0.30588815  0.56908310  0.35921272    -1.13700
O279        O  0.29339476  0.59767713  0.39719305    -0.72900
C280        C  0.28957606  0.57758119  0.40910053     0.97900
C281        C  0.28625536  0.52980755  0.32347189     0.94300
Al282      Al  0.33110509  0.55490583  0.34316891     1.55600
O283        O  0.25361614  0.57658739  0.36602824    -0.77500
C284        C  0.35979596  0.59179327  0.37117445     0.98400
C285        C  0.32312691  0.51489626  0.37448191     0.93300
O286        O  0.29916295  0.51834923  0.37244970    -0.82800
O287        O  0.30181635  0.53527588  0.61911282    -0.82300
C288        C  0.31348231  0.62817326  0.66855119     0.97100
O289        O  0.32845098  0.60921887  0.66951759    -0.71400
O290        O  0.30245022  0.56782197  0.67962504    -0.75000
Al291      Al  0.32641297  0.57580018  0.65607364     1.49000
C292        C  0.28410618  0.55215929  0.67822518     0.92400
O293        O  0.25086295  0.58484323  0.63620161    -0.81200
O294        O  0.30709563  0.60141128  0.59312175    -0.74700
Al295      Al  0.27800895  0.56153559  0.62795208     1.90100
O296        O  0.26712943  0.61830897  0.61875445    -0.73800
O297        O  0.33912296  0.61982091  0.62343688    -0.73700
O298        O  0.29853326  0.63137227  0.65172543    -0.79300
O299        O  0.35359124  0.58273969  0.63483259    -0.77500
O300        O  0.30240096  0.58389858  0.63563810    -1.13700
O301        O  0.32915214  0.54073114  0.64742087    -0.72900
C302        C  0.32011664  0.52708907  0.63135082     0.97900
C303        C  0.24864033  0.60756406  0.62885610     0.94300
Al304      Al  0.30289219  0.61501283  0.62279338     1.55600
O305        O  0.27440383  0.54686902  0.65866331    -0.77500
C306        C  0.35741524  0.60433603  0.62554295     0.98400
C307        C  0.29268501  0.58524923  0.58349607     0.93300
O308        O  0.27746515  0.57149311  0.59548948    -0.82800
O309        O  0.44333370  0.27207796  0.40278539    -0.82300
C310        C  0.39629210  0.30736539  0.32101205     0.97100
O311        O  0.38503278  0.30398911  0.34026064    -0.71400
O312        O  0.38991714  0.25794983  0.35704408    -0.75000
Al313      Al  0.39650105  0.29047634  0.36963879     1.49000
C314        C  0.40059980  0.23730869  0.36254760     0.92400
O315        O  0.45678842  0.25351542  0.34059062    -0.81200
O316        O  0.46663368  0.32310389  0.36769621    -0.74700
Al317      Al  0.44905353  0.26376769  0.37151884     1.90100
O318        O  0.46697178  0.29235888  0.32883763    -0.73800
O319        O  0.42152206  0.34146175  0.35586596    -0.73700
O320        O  0.42037526  0.30736973  0.31991405    -0.79300
O321        O  0.39861183  0.32352209  0.38304748    -0.77500
O322        O  0.42933695  0.28946697  0.36192198    -1.13700
O323        O  0.40167186  0.27743262  0.40065746    -0.72900
C324        C  0.42195206  0.27512377  0.41252866     0.97900
C325        C  0.46768394  0.26827527  0.32621947     0.94300
Al326      Al  0.44279554  0.31408687  0.34456438     1.55600
O327        O  0.42251737  0.23755545  0.37181916    -0.77500
C328        C  0.40609720  0.34341299  0.37267954     0.98400
C329        C  0.48388166  0.30794898  0.37428813     0.93300
O330        O  0.48016499  0.28394029  0.37369823    -0.82800
O331        O  0.46072904  0.29274563  0.62398283    -0.82300
C332        C  0.36711748  0.29754684  0.67311849     0.97100
O333        O  0.38597249  0.31252862  0.67565735    -0.71400
O334        O  0.42842363  0.28847511  0.68351093    -0.75000
Al335      Al  0.41909269  0.31385227  0.66177721     1.49000
C336        C  0.44414046  0.27047789  0.68092085     0.92400
O337        O  0.41156912  0.23965852  0.63661145    -0.81200
O338        O  0.39576469  0.29913545  0.59662395    -0.74700
Al339      Al  0.43462369  0.26791510  0.63073127     1.90100
O340        O  0.37845317  0.25657045  0.61960668    -0.73800
O341        O  0.37533520  0.32845972  0.62885368    -0.73700
O342        O  0.36360039  0.28549638  0.65442890    -0.79300
O343        O  0.41102684  0.34302073  0.64310397    -0.77500
O344        O  0.41176288  0.29137818  0.63959884    -1.13700
O345        O  0.45367467  0.31900496  0.65285823    -0.72900
C346        C  0.46799759  0.31084994  0.63694302     0.97900
C347        C  0.38946215  0.23721908  0.62802131     0.94300
Al348      Al  0.38102383  0.29233653  0.62602141     1.55600
O349        O  0.44880706  0.26188042  0.66092675    -0.77500
C350        C  0.38990512  0.34709749  0.63330231     0.98400
C351        C  0.41256482  0.28554614  0.58682687     0.93300
O352        O  0.42568027  0.26970017  0.59845644    -0.82800
O353        O  0.93633662  0.21366632  0.58988748    -0.82300
C354        C  0.88255827  0.18092231  0.66954788     0.97100
O355        O  0.87328614  0.18322617  0.64948404    -0.71400
O356        O  0.88050482  0.22897259  0.63244373    -0.75000
Al357      Al  0.88752667  0.19587708  0.62105327     1.49000
C358        C  0.89249955  0.24945971  0.62839640     0.92400
O359        O  0.94822235  0.23337715  0.65222128    -0.81200
O360        O  0.95769153  0.16274302  0.62938212    -0.74700
Al361      Al  0.94093406  0.22218435  0.62144115     1.90100
O362        O  0.95393084  0.19501814  0.66696676    -0.73800
O363        O  0.91098604  0.14566390  0.63812787    -0.73700
O364        O  0.90640233  0.18104136  0.67276431    -0.79300
O365        O  0.89027696  0.16200439  0.60879786    -0.77500
O366        O  0.91993046  0.19705042  0.63082600    -1.13700
O367        O  0.89467410  0.20824832  0.59042616    -0.72900
C368        C  0.91537054  0.21112079  0.57936721     0.97900
C369        C  0.95614436  0.21905400  0.66830431     0.94300
Al370      Al  0.93134096  0.17313052  0.65009032     1.55600
O371        O  0.91506251  0.24880100  0.62038969    -0.77500
C372        C  0.89670092  0.14274440  0.62069238     0.98400
C373        C  0.97512690  0.17736665  0.62183845     0.93300
O374        O  0.97143835  0.20131208  0.62053287    -0.82800
O375        O  0.96088958  0.19113027  0.36926215    -0.82300
C376        C  0.86843808  0.18065174  0.31955333     0.97100
O377        O  0.88671484  0.16479536  0.31912078    -0.71400
O378        O  0.92885294  0.18906650  0.30900861    -0.75000
Al379      Al  0.92016924  0.16618155  0.33294836     1.49000
C380        C  0.94521830  0.20679583  0.30974258     0.92400
O381        O  0.91288639  0.24295573  0.35120448    -0.81200
O382        O  0.89522218  0.18775118  0.39560393    -0.74700
Al383      Al  0.93545884  0.21522825  0.35970406     1.90100
O384        O  0.87939232  0.22748984  0.36913254    -0.73800
O385        O  0.87562360  0.15507004  0.36539922    -0.73700
O386        O  0.86552748  0.19582004  0.33632085    -0.79300
O387        O  0.91256491  0.13991147  0.35463292    -0.77500
O388        O  0.91259992  0.19103264  0.35268983    -1.13700
O389        O  0.95507210  0.16256025  0.34217343    -0.72900
C390        C  0.96867742  0.17182446  0.35819189     0.97900
C391        C  0.89108847  0.24621872  0.36027539     0.94300
Al392      Al  0.88158184  0.19150072  0.36554649     1.55600
O393        O  0.95040548  0.21758579  0.32885986    -0.77500
C394        C  0.89083516  0.13645519  0.36352865     0.98400
C395        C  0.91141080  0.20274741  0.40467189     0.93300
O396        O  0.92550410  0.21689918  0.39199503    -0.82800
O397        O  0.06497425  0.76866906  0.58850471    -0.82300
C398        C  0.10922919  0.80562439  0.67128472     0.97100
O399        O  0.12104918  0.80340708  0.65214684    -0.71400
O400        O  0.11851177  0.75821388  0.63354994    -0.75000
Al401      Al  0.11046611  0.79094165  0.62200760     1.49000
C402        C  0.10796238  0.73715967  0.62910594     0.92400
O403        O  0.05024657  0.75206424  0.65155486    -0.81200
O404        O  0.03989362  0.82098813  0.62288489    -0.74700
Al405      Al  0.05862066  0.76175894  0.62020712     1.90100
O406        O  0.03864526  0.79070860  0.66166701    -0.73800
O407        O  0.08402590  0.84048086  0.63681224    -0.73700
O408        O  0.08507384  0.80567138  0.67179593    -0.79300
O409        O  0.10761027  0.82466132  0.60937318    -0.77500
O410        O  0.07757575  0.78833468  0.62950448    -1.13700
O411        O  0.10576753  0.77881214  0.59070954    -0.72900
C412        C  0.08618103  0.77316871  0.57876635     0.97900
C413        C  0.03878942  0.76688492  0.66539521     0.94300
Al414      Al  0.06313950  0.81243647  0.64673422     1.55600
O415        O  0.08547983  0.73642142  0.62116917    -0.77500
C416        C  0.09940997  0.84382802  0.62028069     0.98400
C417        C  0.02354327  0.80532440  0.61513325     0.93300
O418        O  0.02736943  0.78134644  0.61654429    -0.82800
O419        O  0.05118833  0.78974918  0.36749936    -0.82300
C420        C  0.14386970  0.79772185  0.31780595     0.97100
O421        O  0.12502445  0.81270442  0.31581612    -0.71400
O422        O  0.08267966  0.78956526  0.30692914    -0.75000
Al423      Al  0.09192929  0.81318301  0.32993396     1.49000
C424        C  0.06575838  0.77254188  0.30826490     0.92400
O425        O  0.09851945  0.73774015  0.34914633    -0.81200
O426        O  0.11471424  0.79299143  0.39437509    -0.74700
Al427      Al  0.07601422  0.76518326  0.35799985     1.90100
O428        O  0.13165197  0.75257238  0.36819711    -0.73800
O429        O  0.13553598  0.82559650  0.36413777    -0.73700
O430        O  0.14731088  0.78468481  0.33597061    -0.79300
O431        O  0.10014400  0.84068281  0.34986567    -0.77500
O432        O  0.09911368  0.78920300  0.35075447    -1.13700
O433        O  0.05726440  0.81792347  0.33977624    -0.72900
C434        C  0.04386569  0.80927079  0.35634816     0.97900
C435        C  0.12020618  0.73425344  0.35831269     0.94300
Al436      Al  0.12968417  0.78901262  0.36454886     1.55600
O437        O  0.06042794  0.76268005  0.32771629    -0.77500
C438        C  0.12106609  0.84438557  0.36001509     0.98400
C439        C  0.09860631  0.77762100  0.40319242     0.93300
O440        O  0.08577861  0.76282171  0.39021369    -0.82800
O441        O  0.78287364  0.92741961  0.59133880    -0.82300
C442        C  0.81904092  0.87299027  0.66930575     0.97100
O443        O  0.81329809  0.86317120  0.64999895    -0.71400
O444        O  0.76729020  0.87124128  0.63445575    -0.75000
Al445      Al  0.80005686  0.87753854  0.62174452     1.49000
C446        C  0.74715532  0.88315029  0.62961306     0.92400
O447        O  0.76538656  0.93701314  0.65469894    -0.81200
O448        O  0.83424034  0.94828856  0.62752282    -0.74700
Al449      Al  0.77506468  0.93123942  0.62318492     1.90100
O450        O  0.80462479  0.94345658  0.66731989    -0.73800
O451        O  0.85210609  0.90205934  0.63457344    -0.73700
O452        O  0.82072538  0.89688300  0.67166336    -0.79300
O453        O  0.83318454  0.87903176  0.60805632    -0.77500
O454        O  0.80039867  0.91003690  0.63125296    -1.13700
O455        O  0.78699971  0.88552889  0.59134138    -0.72900
C456        C  0.78496043  0.90657083  0.58042121     0.97900
C457        C  0.78064645  0.94463002  0.67027195     0.94300
Al458      Al  0.82578009  0.92173678  0.64869046     1.55600
O459        O  0.74826759  0.90564053  0.62157604    -0.77500
C460        C  0.85336999  0.88680133  0.61769361     0.98400
C461        C  0.81917870  0.96604017  0.62201604     0.93300
O462        O  0.79528550  0.96230431  0.62269768    -0.82800
O463        O  0.80656640  0.94740272  0.37110014    -0.82300
C464        C  0.82279204  0.85628978  0.31993195     0.97100
O465        O  0.83689999  0.87606642  0.31965768    -0.71400
O466        O  0.81133663  0.91768254  0.31029965    -0.75000
Al467      Al  0.83410637  0.90887559  0.33429789     1.49000
C468        C  0.79223184  0.93225273  0.31119786     0.92400
O469        O  0.75760258  0.89738644  0.35150531    -0.81200
O470        O  0.81230628  0.88128608  0.39622920    -0.74700
Al471      Al  0.78395051  0.92099092  0.36084881     1.90100
O472        O  0.77379868  0.86396684  0.36877618    -0.73800
O473        O  0.84638571  0.86388892  0.36605051    -0.73700
O474        O  0.80713137  0.85231560  0.33625336    -0.79300
O475        O  0.86059627  0.90149643  0.35578521    -0.77500
O476        O  0.80924974  0.89949990  0.35360453    -1.13700
O477        O  0.83630425  0.94331306  0.34471936    -0.72900
C478        C  0.82613786  0.95600867  0.36085391     0.97900
C479        C  0.75501131  0.87496963  0.35947454     0.94300
Al480      Al  0.80981278  0.86810813  0.36585865     1.55600
O481        O  0.78122791  0.93634047  0.33041272    -0.77500
C482        C  0.86476209  0.87945956  0.36377959     0.98400
C483        C  0.79694271  0.89688808  0.40547886     0.93300
O484        O  0.78214695  0.91033345  0.39295863    -0.82800
O485        O  0.22123939  0.05835581  0.58915255    -0.82300
C486        C  0.18701559  0.10604937  0.67127768     0.97100
O487        O  0.18886443  0.11685294  0.65167474    -0.71400
O488        O  0.23407368  0.11234727  0.63332124    -0.75000
Al489      Al  0.20110511  0.10484025  0.62216717     1.49000
C490        C  0.25492860  0.10114949  0.62963353     0.92400
O491        O  0.23868509  0.04356021  0.65193091    -0.81200
O492        O  0.16870720  0.03457898  0.62640623    -0.74700
Al493      Al  0.22845569  0.05212905  0.62095189     1.90100
O494        O  0.20005104  0.03459607  0.66422202    -0.73800
O495        O  0.15106094  0.08009566  0.63842727    -0.73700
O496        O  0.18684830  0.08195279  0.67307943    -0.79300
O497        O  0.16740537  0.10212992  0.60988256    -0.77500
O498        O  0.20280447  0.07203178  0.63054482    -1.13700
O499        O  0.21294594  0.09938854  0.59116702    -0.72900
C500        C  0.21729015  0.07958867  0.57924337     0.97900
C501        C  0.22397934  0.03296161  0.66646446     0.94300
Al502      Al  0.17872281  0.05893455  0.64890453     1.55600
O503        O  0.25488979  0.07850874  0.62174444    -0.77500
C504        C  0.14812200  0.09474660  0.62122436     0.98400
C505        C  0.18341602  0.01744679  0.61863577     0.93300
O506        O  0.20745817  0.02126707  0.61814365    -0.82800
O507        O  0.20772336  0.03420328  0.36880583    -0.82300
C508        C  0.19177455  0.12489501  0.31668689     0.97100
O509        O  0.17752115  0.10529986  0.31693570    -0.71400
O510        O  0.20424160  0.06448066  0.30833615    -0.75000
Al511      Al  0.18051773  0.07294478  0.33180135     1.49000
C512        C  0.22420338  0.05109153  0.30958748     0.92400
O513        O  0.25679555  0.08608497  0.35130289    -0.81200
O514        O  0.20011972  0.10161558  0.39390289    -0.74700
Al515      Al  0.23024176  0.06174687  0.35951875     1.90100
O516        O  0.23889518  0.11936171  0.36706768    -0.73800
O517        O  0.16683175  0.11800131  0.36266923    -0.73700
O518        O  0.20671098  0.12967973  0.33334419    -0.79300
O519        O  0.15311462  0.08013294  0.35277113    -0.77500
O520        O  0.20473992  0.08278558  0.35154504    -1.13700
O521        O  0.17855640  0.03870822  0.34206202    -0.72900
C522        C  0.18857620  0.02557522  0.35791349     0.97900
C523        C  0.25841859  0.10878192  0.35877160     0.94300
Al524      Al  0.20329546  0.11435888  0.36328773     1.55600
O525        O  0.23473415  0.04708988  0.32902241    -0.77500
C526        C  0.14866196  0.10222291  0.36056720     0.98400
C527        C  0.21547907  0.08626247  0.40357830     0.93300
O528        O  0.23029072  0.07226628  0.39161201    -0.82800
O529        O  0.80669878  0.03649623  0.11366922    -0.82300
C530        C  0.81958821  0.12604039  0.16769038     0.97100
O531        O  0.83452756  0.10707434  0.16702428    -0.71400
O532        O  0.80906875  0.06502455  0.17557812    -0.75000
Al533      Al  0.83214478  0.07473635  0.15190312     1.49000
C534        C  0.79109132  0.04894875  0.17398333     0.92400
O535        O  0.75566555  0.08394232  0.13454831    -0.81200
O536        O  0.81028715  0.10369505  0.09029076    -0.74700
Al537      Al  0.78291503  0.06169023  0.12458085     1.90100
O538        O  0.77099177  0.11872310  0.11846499    -0.73800
O539        O  0.84397476  0.12073639  0.12101367    -0.73700
O540        O  0.80408239  0.13030833  0.15136416    -0.79300
O541        O  0.85857377  0.08304029  0.13051387    -0.77500
O542        O  0.80740427  0.08388232  0.13257431    -1.13700
O543        O  0.83495379  0.04067816  0.14126640    -0.72900
C544        C  0.82581465  0.02804527  0.12463248     0.97900
C545        C  0.75237829  0.10644558  0.12699378     0.94300
Al546      Al  0.80730448  0.11566875  0.12120275     1.55600
O547        O  0.78060239  0.04499330  0.15453559    -0.77500
C548        C  0.86236092  0.10513579  0.12238131     0.98400
C549        C  0.79521208  0.08796418  0.08070500     0.93300
O550        O  0.78080842  0.07354463  0.09282638    -0.82800
O551        O  0.77916124  0.05899736  0.89481047    -0.82300
C552        C  0.81355031  0.11229948  0.81514840     0.97100
O553        O  0.81161969  0.12158736  0.83527946    -0.71400
O554        O  0.76578536  0.11560959  0.85239213    -0.75000
Al555      Al  0.79836858  0.10737840  0.86372388     1.49000
C556        C  0.74494661  0.10429753  0.85635855     0.92400
O557        O  0.75959494  0.04785823  0.83198124    -0.81200
O558        O  0.82982355  0.03715042  0.85480195    -0.74700
Al559      Al  0.77079291  0.05471792  0.86291811     1.90100
O560        O  0.79777906  0.04139277  0.81730415    -0.73800
O561        O  0.84793083  0.08338832  0.84639002    -0.73700
O562        O  0.81247271  0.08852996  0.81178745    -0.79300
O563        O  0.83157758  0.10306119  0.87622765    -0.77500
O564        O  0.79631830  0.07519447  0.85365211    -1.13700
O565        O  0.78580729  0.10037194  0.89430727    -0.72900
C566        C  0.78270654  0.07976153  0.90553641     0.97900
C567        C  0.77375810  0.03974076  0.81587700     0.94300
Al568      Al  0.81999042  0.06351855  0.83428748     1.55600
O569        O  0.74489012  0.08141025  0.86383252    -0.77500
C570        C  0.85080875  0.09686953  0.86437874     0.98400
C571        C  0.81517691  0.01990387  0.86257572     0.93300
O572        O  0.79122525  0.02364754  0.86378881    -0.82800
O573        O  0.96221866  0.79305875  0.11546429    -0.82300
C574        C  0.87067470  0.80449571  0.16710231     0.97100
O575        O  0.89015959  0.81885426  0.16784200    -0.71400
O576        O  0.93121465  0.79200686  0.17659411    -0.75000
Al577      Al  0.92300629  0.81680683  0.15374088     1.49000
C578        C  0.94684104  0.77379116  0.17435070     0.92400
O579        O  0.91292476  0.74162595  0.13259646    -0.81200
O580        O  0.89666362  0.79892256  0.09031639    -0.74700
Al581      Al  0.93618662  0.76896220  0.12450010     1.90100
O582        O  0.87940585  0.75863072  0.11611524    -0.73800
O583        O  0.87883453  0.83069107  0.12182112    -0.73700
O584        O  0.86680131  0.78982401  0.15005137    -0.79300
O585        O  0.91600359  0.84479466  0.13334756    -0.77500
O586        O  0.91423052  0.79334881  0.13297126    -1.13700
O587        O  0.95755984  0.81959864  0.14436717    -0.72900
C588        C  0.97064028  0.81133921  0.12767713     0.97900
C589        C  0.89061335  0.73938011  0.12438083     0.94300
Al590      Al  0.88309159  0.79439530  0.12056418     1.55600
O591        O  0.95146852  0.76477605  0.15447992    -0.77500
C592        C  0.89433755  0.84898580  0.12457470     0.98400
C593        C  0.91222224  0.78379337  0.08072649     0.93300
O594        O  0.92569726  0.76849938  0.09256904    -0.82800
O595        O  0.93558660  0.77354137  0.89639936    -0.82300
C596        C  0.88703488  0.80377488  0.81404352     0.97100
O597        O  0.87574114  0.80199305  0.83344395    -0.71400
O598        O  0.88182269  0.75773869  0.85306602    -0.75000
Al599      Al  0.88794844  0.79148924  0.86350457     1.49000
C600        C  0.89403653  0.73768840  0.85760840     0.92400
O601        O  0.94983401  0.75580947  0.83404467    -0.81200
O602        O  0.95733328  0.82631417  0.85984761    -0.74700
Al603      Al  0.94163204  0.76607703  0.86501832     1.90100
O604        O  0.95845883  0.79469315  0.82195872    -0.73800
O605        O  0.91147178  0.84243840  0.84707489    -0.73700
O606        O  0.91100876  0.80645688  0.81292670    -0.79300
O607        O  0.88875101  0.82578742  0.87491212    -0.77500
O608        O  0.92086588  0.79102728  0.85537773    -1.13700
O609        O  0.89417229  0.78092345  0.89499530    -0.72900
C610        C  0.91442737  0.77681854  0.90646688     0.97900
C611        C  0.96020196  0.77073979  0.81954909     0.94300
Al612      Al  0.93343243  0.81545306  0.83707917     1.55600
O613        O  0.91656124  0.73892721  0.86531000    -0.77500
C614        C  0.89599540  0.84518794  0.86364013     0.98400
C615        C  0.97474040  0.81186257  0.86753835     0.93300
O616        O  0.97177011  0.78770662  0.86735939    -0.82800
O617        O  0.20691097  0.94712433  0.11141282    -0.82300
C618        C  0.19762371  0.86188469  0.17128740     0.97100
O619        O  0.18167189  0.88002215  0.16969623    -0.71400
O620        O  0.20343650  0.92432235  0.17353263    -0.75000
Al621      Al  0.18127490  0.91057338  0.15129265     1.49000
C622        C  0.22255394  0.93881534  0.17145289     0.92400
O623        O  0.25825300  0.90087631  0.13351814    -0.81200
O624        O  0.20295055  0.87781191  0.09153843    -0.74700
Al625      Al  0.23066738  0.92240572  0.12309385     1.90100
O626        O  0.24284349  0.86540915  0.11927922    -0.73800
O627        O  0.17090667  0.86116334  0.12449168    -0.73700
O628        O  0.21146141  0.85573861  0.15415210    -0.79300
O629        O  0.15481473  0.89863456  0.13162410    -0.77500
O630        O  0.20631232  0.90054704  0.13255696    -1.13700
O631        O  0.17645718  0.94284994  0.13712792    -0.72900
C632        C  0.18645362  0.95505124  0.12054391     0.97900
C633        C  0.26151333  0.87808127  0.12689897     0.94300
Al634      Al  0.20696248  0.86791726  0.12314989     1.55600
O635        O  0.23388737  0.94063647  0.15213405    -0.77500
C636        C  0.15180869  0.87570034  0.12566862     0.98400
C637        C  0.21771807  0.89314923  0.08084590     0.93300
O638        O  0.23184573  0.90871461  0.09198868    -0.82800
O639        O  0.22353881  0.92567736  0.89582554    -0.82300
C640        C  0.18578635  0.87813861  0.81443505     0.97100
O641        O  0.18903994  0.86717946  0.83384510    -0.71400
O642        O  0.23531037  0.87182905  0.85050173    -0.75000
Al643      Al  0.20269958  0.87905309  0.86308210     1.49000
C644        C  0.25604923  0.88294920  0.85513000     0.92400
O645        O  0.23986492  0.94021631  0.83284890    -0.81200
O646        O  0.17089045  0.94987159  0.86036385    -0.74700
Al647      Al  0.23022640  0.93185226  0.86404834     1.90100
O648        O  0.20101829  0.94936367  0.82133281    -0.73800
O649        O  0.15225076  0.90468404  0.84926038    -0.73700
O650        O  0.18580144  0.90227197  0.81310289    -0.79300
O651        O  0.16941329  0.88157430  0.87657131    -0.77500
O652        O  0.20418588  0.91200513  0.85497869    -1.13700
O653        O  0.21607601  0.88430608  0.89399055    -0.72900
C654        C  0.22067935  0.90429061  0.90578344     0.97900
C655        C  0.22495493  0.95077520  0.81854328     0.94300
Al656      Al  0.17960518  0.92539050  0.83755698     1.55600
O657        O  0.25612015  0.90542334  0.86326332    -0.77500
C658        C  0.14976323  0.88962909  0.86625977     0.98400
C659        C  0.18607482  0.96683239  0.86774000     0.93300
O660        O  0.21003361  0.96296729  0.86720856    -0.82800
O661        O  0.05057420  0.19028669  0.11375716    -0.82300
C662        C  0.14234337  0.17546416  0.16382628     0.97100
O663        O  0.12266010  0.16126577  0.16456045    -0.71400
O664        O  0.07986325  0.18483061  0.17457835    -0.75000
Al665      Al  0.08984206  0.16289232  0.15002982     1.49000
C666        C  0.06462614  0.20346403  0.17375214     0.92400
O667        O  0.09957100  0.24009700  0.13463252    -0.81200
O668        O  0.11547583  0.18651578  0.08833097    -0.74700
Al669      Al  0.07634941  0.21347232  0.12453403     1.90100
O670        O  0.13273525  0.22529819  0.11613757    -0.73800
O671        O  0.13486650  0.15260412  0.11724279    -0.73700
O672        O  0.14593652  0.19122170  0.14750026    -0.79300
O673        O  0.09813778  0.13693078  0.12816725    -0.77500
O674        O  0.09842016  0.18845521  0.13114648    -1.13700
O675        O  0.05567915  0.15964503  0.13925826    -0.72900
C676        C  0.04276134  0.16987894  0.12328391     0.97900
C677        C  0.12197021  0.24338189  0.12680210     0.94300
Al678      Al  0.12951274  0.18893928  0.11832381     1.55600
O679        O  0.06082265  0.21491140  0.15473828    -0.77500
C680        C  0.11980671  0.13381841  0.11911744     0.98400
C681        C  0.09938939  0.20171679  0.07963299     0.93300
O682        O  0.08668176  0.21664290  0.09257299    -0.82800
O683        O  0.06386333  0.21280925  0.89424560    -0.82300
C684        C  0.11861345  0.17292595  0.81790381     0.97100
O685        O  0.12763462  0.17682838  0.83789807    -0.71400
O686        O  0.12187926  0.22341013  0.85342983    -0.75000
Al687      Al  0.11304067  0.19097316  0.86563271     1.49000
C688        C  0.11056279  0.24447510  0.85587553     0.92400
O689        O  0.05520727  0.22822275  0.83051097    -0.81200
O690        O  0.04243133  0.15983094  0.85753969    -0.74700
Al691      Al  0.06076224  0.21903193  0.86211247     1.90100
O692        O  0.04792771  0.18922058  0.81808996    -0.73800
O693        O  0.08795570  0.14046121  0.85059149    -0.73700
O694        O  0.09487532  0.17307099  0.81424107    -0.79300
O695        O  0.10889891  0.15771803  0.87922841    -0.77500
O696        O  0.08109447  0.19262393  0.85485652    -1.13700
O697        O  0.10495643  0.20468243  0.89549255    -0.72900
C698        C  0.08408362  0.20951515  0.90569406     0.97900
C699        C  0.04734121  0.21316670  0.81498677     0.94300
Al700      Al  0.06921373  0.16779811  0.83675978     1.55600
O701        O  0.08745210  0.24485501  0.86241508    -0.77500
C702        C  0.10171769  0.13801277  0.86836601     0.98400
C703        C  0.02546141  0.17518751  0.86430857     0.93300
O704        O  0.02942363  0.19914953  0.86354209    -0.82800
C705        C  0.08372955  0.21102209  0.93137948    -0.20300
C706        C  0.06118325  0.20685353  0.94458567     0.35900
C707        C  0.06281254  0.20576111  0.96891423    -0.26300
C708        C  0.08625504  0.20929325  0.98024250     0.02300
C709        C  0.10842803  0.21472994  0.96719611     0.27100
C710        C  0.10699361  0.21527032  0.94295094    -0.25400
N711        N  0.03694744  0.20277222  0.93338976    -0.82800
H712        H  0.04583140  0.20169093  0.97910236     0.12900
C713        C  0.08781680  0.20638151  0.00573653     0.02300
N714        N  0.13237125  0.21949298  0.97869716    -0.81400
H715        H  0.12425146  0.21892419  0.93302629     0.17800
C716        C  0.10401543  0.18760009  0.01487903    -0.26200
C717        C  0.10816542  0.18548661  0.03882241     0.35800
C718        C  0.09544294  0.20248774  0.05410622    -0.20300
C719        C  0.07821917  0.22050117  0.04482923    -0.25500
C720        C  0.07435403  0.22267539  0.02081230     0.27200
H721        H  0.11395350  0.17485536  0.00312575     0.12900
N722        N  0.12526672  0.16615479  0.04743814    -0.82800
H723        H  0.06799293  0.23330760  0.05629710     0.17800
N724        N  0.05718478  0.24162409  0.01165953    -0.81400
H725        H  0.13128889  0.15411827  0.03404220     0.33400
H726        H  0.14171696  0.17549878  0.05338511     0.37900
H727        H  0.04859830  0.25193774  0.02508560     0.33400
H728        H  0.06808198  0.25474832  0.00207759     0.30100
H729        H  0.14690293  0.22303938  0.96661647     0.33400
H730        H  0.13032268  0.23625359  0.98841667     0.30100
H731        H  0.03147481  0.22019993  0.92595960     0.37900
H732        H  0.02280101  0.19822967  0.94557936     0.33400
C733        C  0.17535878  0.99184696  0.87549325    -0.20300
C734        C  0.18869047  0.01525619  0.87224635     0.35900
C735        C  0.17579143  0.03864719  0.87567681    -0.26300
C736        C  0.15000837  0.03924083  0.88257502     0.02300
C737        C  0.13730077  0.01592972  0.88742460     0.27100
C738        C  0.14999562  0.99255731  0.88366698    -0.25400
N739        N  0.21467530  0.01532944  0.86403173    -0.82800
H740        H  0.18554660  0.05652753  0.87186234     0.12900
C741        C  0.13580536  0.06403624  0.88189667     0.02300
N742        N  0.11129389  0.01611901  0.89557506    -0.81400
H743        H  0.13975035  0.97473094  0.88652506     0.17800
C744        C  0.11448976  0.06610864  0.86729301    -0.26200
C745        C  0.10213077  0.08961897  0.86381368     0.35800
C746        C  0.11122970  0.11199921  0.87498552    -0.20300
C747        C  0.13183128  0.10964456  0.89056220    -0.25500
C748        C  0.14416662  0.08591626  0.89413835     0.27200
H749        H  0.10788704  0.04946653  0.85777855     0.12900
N750        N  0.08067574  0.09063343  0.84841098    -0.82800
H751        H  0.13900689  0.12653048  0.89933486     0.17800
N752        N  0.16539877  0.08402449  0.90983994    -0.81400
H753        H  0.08664652  0.08427885  0.83210057     0.33400
H754        H  0.06668856  0.07794675  0.85456778     0.37900
H755        H  0.16926655  0.10180840  0.91740686     0.33400
H756        H  0.15994712  0.07169589  0.92329845     0.30100
H757        H  0.10460255  0.99742102  0.89817296     0.33400
H758        H  0.11119446  0.02502822  0.91179324     0.30100
H759        H  0.22608935  0.00796359  0.87732006     0.37900
H760        H  0.22107088  0.03407692  0.86113544     0.33400
C761        C  0.17421552  0.97956546  0.11310246    -0.20300
C762        C  0.18501965  0.99616079  0.09624110     0.35900
C763        C  0.17477618  0.02095596  0.09324040    -0.26300
C764        C  0.15399103  0.02950431  0.10664892     0.02300
C765        C  0.14216303  0.01229623  0.12226527     0.27100
C766        C  0.15211475  0.98756546  0.12501734    -0.25400
N767        N  0.20669223  0.98820945  0.08271539    -0.82800
H768        H  0.18349309  0.03397996  0.08085844     0.12900
C769        C  0.14599751  0.05695138  0.10589144     0.02300
N770        N  0.12079825  0.02037592  0.13617402    -0.81400
H771        H  0.14318511  0.97494115  0.13760291     0.17800
C772        C  0.12009330  0.06312838  0.10255612    -0.26200
C773        C  0.11107748  0.08824494  0.10598158     0.35800
C774        C  0.12847734  0.10781673  0.11221818    -0.20300
C775        C  0.15466466  0.10200916  0.11371221    -0.25500
C776        C  0.16354544  0.07676645  0.11109833     0.27200
H777        H  0.10667705  0.04802775  0.09816664     0.12900
N778        N  0.08429608  0.09381038  0.10354666    -0.82800
H779        H  0.16813391  0.11696263  0.11834534     0.17800
N780        N  0.19011817  0.07102327  0.11484135    -0.81400
H781        H  0.07406371  0.07726873  0.09915254     0.33400
H782        H  0.08233522  0.10656506  0.08965997     0.37900
H783        H  0.20046548  0.08772657  0.11845662     0.33400
H784        H  0.19132169  0.05946039  0.12962807     0.30100
H785        H  0.11412253  0.00535833  0.14661001     0.33400
H786        H  0.12733187  0.03466693  0.14740510     0.30100
H787        H  0.20066775  0.97311222  0.07212858     0.37900
H788        H  0.21265298  0.00292308  0.07159462     0.33400
C789        C  0.21941833  0.89275404  0.05502948    -0.20300
C790        C  0.19896736  0.88438751  0.04080115     0.35900
C791        C  0.20149918  0.88572327  0.01648975    -0.26300
C792        C  0.22402604  0.89485074  0.00608010     0.02300
C793        C  0.24463647  0.90256951  0.02011370     0.27100
C794        C  0.24207429  0.90162661  0.04439025    -0.25400
N795        N  0.17539143  0.87547689  0.05091937    -0.82800
H796        H  0.18570531  0.87987890  0.00553191     0.12900
C797        C  0.22518198  0.89731662  0.98044172     0.02300
N798        N  0.26798644  0.91153288  0.00962312    -0.81400
H799        H  0.25797000  0.90778758  0.05507658     0.17800
C800        C  0.22067068  0.92126730  0.97027740    -0.26200
C801        C  0.21930230  0.92414803  0.94603259     0.35800
C802        C  0.22278514  0.90249568  0.93154996    -0.20300
C803        C  0.22807997  0.87863105  0.94190849    -0.25500
C804        C  0.22945625  0.87588653  0.96618819     0.27200
H805        H  0.21747615  0.93766779  0.98139492     0.12900
N806        N  0.21372972  0.94886622  0.93622023    -0.82800
H807        H  0.23118105  0.86202812  0.93102956     0.17800
N808        N  0.23496205  0.85141351  0.97648042    -0.81400
H809        H  0.21230392  0.96273861  0.94920665     0.33400
H810        H  0.19570527  0.94770157  0.92843677     0.37900
H811        H  0.23755904  0.83754620  0.96364213     0.33400
H812        H  0.25240881  0.85308212  0.98520585     0.30100
H813        H  0.28126851  0.91666865  0.02234614     0.33400
H814        H  0.27595028  0.89620379  0.00050668     0.30100
H815        H  0.17900469  0.85769378  0.05859756     0.37900
H816        H  0.16173308  0.87207108  0.03805134     0.33400
C817        C  0.99972267  0.82303280  0.87465979    -0.20300
C818        C  0.00196567  0.84854651  0.88260147     0.35900
C819        C  0.02643230  0.85964199  0.88505112    -0.26300
C820        C  0.04866480  0.84575796  0.87978445     0.02300
C821        C  0.04646023  0.81978625  0.87330471     0.27100
C822        C  0.02205172  0.80862109  0.87113330    -0.25400
N823        N  0.97943807  0.86319198  0.88779867    -0.82800
H824        H  0.02819938  0.87947735  0.89035521     0.12900
C825        C  0.07384222  0.85920679  0.87865528     0.02300
N826        N  0.06896613  0.80519368  0.86787314    -0.81400
H827        H  0.02048450  0.78897714  0.86525210     0.17800
C828        C  0.09426585  0.85106562  0.89260319    -0.26200
C829        C  0.11902734  0.86160055  0.88998843     0.35800
C830        C  0.12352324  0.88051459  0.87275278    -0.20300
C831        C  0.10258965  0.88946456  0.85971465    -0.25500
C832        C  0.07798105  0.87893885  0.86234193     0.27200
H833        H  0.09093103  0.83605754  0.90527868     0.12900
N834        N  0.13958026  0.85263322  0.90437204    -0.82800
H835        H  0.10554508  0.90410534  0.84663010     0.17800
N836        N  0.05734177  0.88755493  0.84784380    -0.81400
H837        H  0.13317062  0.83821223  0.91560344     0.33400
H838        H  0.14533572  0.86793267  0.91484160     0.37900
H839        H  0.06347034  0.90228390  0.83681499     0.33400
H840        H  0.05195549  0.87225865  0.83721197     0.30100
H841        H  0.06406367  0.78638325  0.86346044     0.33400
H842        H  0.07736729  0.81337053  0.85313215     0.30100
H843        H  0.97017294  0.85423578  0.90172650     0.37900
H844        H  0.98440630  0.88160012  0.89337330     0.33400
C845        C  0.99645010  0.82275432  0.12334186    -0.20300
C846        C  0.00624937  0.84291616  0.13737066     0.35900
C847        C  0.03155084  0.85127299  0.13425240    -0.26300
C848        C  0.04733645  0.84048419  0.11733330     0.02300
C849        C  0.03757228  0.82114982  0.10278159     0.27100
C850        C  0.01224541  0.81243154  0.10593942    -0.25400
N851        N  0.99082460  0.85463263  0.15507896    -0.82800
H852        H  0.03924396  0.86609821  0.14541290     0.12900
C853        C  0.07445357  0.84891305  0.11623573     0.02300
N854        N  0.05351572  0.81032809  0.08503246    -0.81400
H855        H  0.00501465  0.79718678  0.09501830     0.17800
C856        C  0.09371312  0.83150748  0.12221245    -0.26200
C857        C  0.11922396  0.83960968  0.12498182     0.35800
C858        C  0.12566505  0.86567646  0.12114029    -0.20300
C859        C  0.10639747  0.88286063  0.11441314    -0.25500
C860        C  0.08088216  0.87474248  0.11192382     0.27200
H861        H  0.08855295  0.81177649  0.12589983     0.12900
N862        N  0.13824558  0.82169558  0.13274405    -0.82800
H863        H  0.11119751  0.90281769  0.11142053     0.17800
N864        N  0.06132133  0.89268332  0.10547561    -0.81400
H865        H  0.13038286  0.80333051  0.13445500     0.33400
H866        H  0.14397802  0.82727712  0.14935425     0.37900
H867        H  0.06912941  0.91097985  0.10308703     0.33400
H868        H  0.05405012  0.88694876  0.08941926     0.30100
H869        H  0.04352633  0.79625081  0.07583844     0.33400
H870        H  0.05783979  0.82492989  0.07319806     0.30100
H871        H  0.97637896  0.86492887  0.14674078     0.37900
H872        H  0.00143448  0.86803227  0.16453180     0.33400
C873        C  0.91364096  0.78274324  0.05531027    -0.20300
C874        C  0.91908285  0.80470553  0.04190286     0.35900
C875        C  0.91918864  0.80275941  0.01759892    -0.26300
C876        C  0.91362270  0.77940894  0.00661958     0.02300
C877        C  0.90860352  0.75738402  0.02011547     0.27100
C878        C  0.90907090  0.75921981  0.04437612    -0.25400
N879        N  0.92539091  0.82855744  0.05298961    -0.82800
H880        H  0.92352400  0.81949614  0.00712822     0.12900
C881        C  0.91310432  0.77830033  0.98096050     0.02300
N882        N  0.90261507  0.73340519  0.00911544    -0.81400
H883        H  0.90516845  0.74238030  0.05483221     0.17800
C884        C  0.93030334  0.76224551  0.96936272    -0.26200
C885        C  0.93063760  0.76091563  0.94505407     0.35800
C886        C  0.91351143  0.77619787  0.93209272    -0.20300
C887        C  0.89595986  0.79188305  0.94376936    -0.25500
C888        C  0.89560553  0.79310619  0.96810287     0.27200
H889        H  0.94361172  0.75082193  0.97936344     0.12900
N890        N  0.94817165  0.74399238  0.93352393    -0.82800
H891        H  0.88283175  0.80361644  0.93386758     0.17800
N892        N  0.87761211  0.80933570  0.97984752    -0.81400
H893        H  0.95951813  0.73427845  0.94557044     0.33400
H894        H  0.93732205  0.73006090  0.92495610     0.37900
H895        H  0.86620574  0.81911000  0.96788797     0.33400
H896        H  0.86534755  0.79751545  0.98946425     0.30100
H897        H  0.89943755  0.71910100  0.02152854     0.33400
H898        H  0.88537764  0.73574220  0.00019301     0.30100
H899        H  0.90896572  0.83514697  0.06140028     0.37900
H900        H  0.93016343  0.84246151  0.04061918     0.33400
C901        C  0.82619953  0.99453933  0.86855447    -0.20300
C902        C  0.85171578  0.99222224  0.87624826     0.35900
C903        C  0.86293624  0.96789686  0.87818376    -0.26300
C904        C  0.84924743  0.94564097  0.87237291     0.02300
C905        C  0.82340415  0.94777024  0.86550893     0.27100
C906        C  0.81204382  0.97217783  0.86397262    -0.25400
N907        N  0.86638444  0.01457154  0.88197555    -0.82800
H908        H  0.88269570  0.96641275  0.88368553     0.12900
C909        C  0.86269683  0.92050214  0.87184175     0.02300
N910        N  0.80914144  0.92523710  0.85919696    -0.81400
H911        H  0.79251863  0.97381305  0.85786648     0.17800
C912        C  0.85415289  0.90018679  0.88588165    -0.26200
C913        C  0.86540937  0.87567978  0.88456489     0.35800
C914        C  0.88557052  0.87130797  0.86857670    -0.20300
C915        C  0.89465977  0.89211904  0.85526219    -0.25500
C916        C  0.88339074  0.91648121  0.85659590     0.27200
H917        H  0.83841077  0.90344299  0.89775038     0.12900
N918        N  0.85594008  0.85523966  0.89899826    -0.82800
H919        H  0.91016107  0.88924284  0.84306655     0.17800
N920        N  0.89237753  0.93698708  0.84195581    -0.81400
H921        H  0.84051902  0.86145963  0.90906520     0.33400
H922        H  0.87049806  0.85042147  0.91061600     0.37900
H923        H  0.90779649  0.93096777  0.83178689     0.33400
H924        H  0.87761239  0.94163767  0.83049801     0.30100
H925        H  0.79044581  0.93006122  0.85451921     0.33400
H926        H  0.81773488  0.91747646  0.84442323     0.30100
H927        H  0.88265945  0.01494102  0.87141108     0.37900
H928        H  0.87237726  0.01285612  0.89919261     0.33400
C929        C  0.87673665  0.10678849  0.87030773    -0.20300
C930        C  0.88051256  0.12780591  0.88550537     0.35900
C931        C  0.90514611  0.13846930  0.88791860    -0.26300
C932        C  0.92594102  0.12908455  0.87516754     0.02300
C933        C  0.92240066  0.10767137  0.86061128     0.27100
C934        C  0.89798833  0.09660350  0.85858247    -0.25400
N935        N  0.85935610  0.13892770  0.89781868    -0.82800
H936        H  0.90802058  0.15478361  0.89922205     0.12900
C937        C  0.95105474  0.14255436  0.87608650     0.02300
N938        N  0.94345156  0.09777765  0.84730826    -0.81400
H939        H  0.89540944  0.08047470  0.84701239     0.17800
C940        C  0.97297860  0.12878255  0.88234883    -0.26200
C941        C  0.99750201  0.13964315  0.88012779     0.35800
C942        C  0.00014806  0.16488323  0.87145239    -0.20300
C943        C  0.97808457  0.17938762  0.86707507    -0.25500
C944        C  0.95354566  0.16839322  0.86903701     0.27200
H945        H  0.97094833  0.10916076  0.88828994     0.12900
N946        N  0.01974183  0.12495243  0.88619702    -0.82800
H947        H  0.98001691  0.19881778  0.86061903     0.17800
N948        N  0.93127156  0.18297574  0.86285048    -0.81400
H949        H  0.01449301  0.10670033  0.89206966     0.33400
H950        H  0.02864496  0.13417781  0.90010900     0.37900
H951        H  0.93639092  0.20166909  0.85814359     0.33400
H952        H  0.92321643  0.17451719  0.84814046     0.30100
H953        H  0.93771550  0.08187895  0.83758787     0.33400
H954        H  0.94894019  0.11193248  0.83542082     0.30100
H955        H  0.84771666  0.14800759  0.88559740     0.37900
H956        H  0.86570857  0.15330566  0.90904300     0.33400
C957        C  0.83754664  0.00270013  0.11929734    -0.20300
C958        C  0.82939831  0.98682248  0.10083820     0.35900
C959        C  0.83982890  0.96202877  0.09857078    -0.26300
C960        C  0.85818144  0.95285321  0.11429154     0.02300
C961        C  0.86670877  0.96886291  0.13231792     0.27100
C962        C  0.85667566  0.99358978  0.13437831    -0.25400
N963        N  0.81036627  0.99559798  0.08474289    -0.82800
H964        H  0.83334989  0.94960985  0.08472546     0.12900
C965        C  0.86708536  0.92586436  0.11313983     0.02300
N966        N  0.88485922  0.95956618  0.14905322    -0.81400
H967        H  0.86325920  0.00542017  0.14858861     0.17800
C968        C  0.89336668  0.92072387  0.11112989    -0.26200
C969        C  0.90298038  0.89576274  0.11421633     0.35800
C970        C  0.88578521  0.87543478  0.11900872    -0.20300
C971        C  0.85934429  0.88048672  0.11945371    -0.25500
C972        C  0.84985351  0.90545034  0.11685175     0.27200
H973        H  0.90651580  0.93648790  0.10808688     0.12900
N974        N  0.93000285  0.89113087  0.11236737    -0.82800
H975        H  0.84597236  0.86504211  0.12299009     0.17800
N976        N  0.82286743  0.91027993  0.11891346    -0.81400
H977        H  0.93953756  0.90765332  0.10670151     0.33400
H978        H  0.93684593  0.88748358  0.12905780     0.37900
H979        H  0.81277313  0.89316195  0.12145532     0.33400
H980        H  0.82003812  0.92129999  0.13381113     0.30100
H981        H  0.88927897  0.97375885  0.16118634     0.33400
H982        H  0.87610630  0.94461920  0.15825120     0.30100
H983        H  0.81833835  0.01085143  0.07538089     0.37900
H984        H  0.80606445  0.98131010  0.07266594     0.33400
C985        C  0.88873564  0.11349033  0.11608947    -0.20300
C986        C  0.90785620  0.09583190  0.10947680     0.35900
C987        C  0.93329437  0.10434319  0.10662550    -0.26300
C988        C  0.94014585  0.13003043  0.11057698     0.02300
C989        C  0.92087132  0.14782957  0.11632077     0.27100
C990        C  0.89537774  0.13944908  0.11864824    -0.25400
N991        N  0.90147866  0.06929315  0.10599706    -0.82800
H992        H  0.94803338  0.09073958  0.10195503     0.12900
C993        C  0.96769232  0.13768786  0.11097840     0.02300
N994        N  0.92742442  0.17415311  0.12078704    -0.81400
H995        H  0.88084992  0.15307199  0.12379263     0.17800
C996        C  0.97639518  0.15820529  0.09719101    -0.26200
C997        C  0.00131634  0.16831209  0.09974395     0.35800
C998        C  0.01777365  0.15788739  0.11678828    -0.20300
C999        C  0.00956792  0.13606721  0.12919875    -0.25500
C1000       C  0.98481521  0.12597365  0.12658429     0.27200
H1001       H  0.96342094  0.16676052  0.08477842     0.12900
N1002       N  0.00961891  0.18936357  0.08544141    -0.82800
H1003       H  0.02213663  0.12734585  0.14184756     0.17800
N1004       N  0.97669205  0.10448561  0.14046349    -0.81400
H1005       H  0.99500460  0.19504925  0.07420943     0.33400
H1006       H  0.02452960  0.18273107  0.07496583     0.37900
H1007       H  0.99167267  0.09787912  0.15085015     0.33400
H1008       H  0.96240382  0.11089209  0.15173244     0.30100
H1009       H  0.91106977  0.18477142  0.12474366     0.33400
H1010       H  0.93899622  0.17457000  0.13555602     0.30100
H1011       H  0.88895987  0.06828864  0.09190176     0.37900
H1012       H  0.91773644  0.05882897  0.10141745     0.33400
C1013       C  0.78363568  0.08046810  0.93146344    -0.20300
C1014       C  0.78124496  0.05815459  0.94542312     0.35900
C1015       C  0.78260153  0.06029461  0.96974565    -0.26300
C1016       C  0.78688577  0.08399328  0.98048813     0.02300
C1017       C  0.78937467  0.10619282  0.96676645     0.27100
C1018       C  0.78770259  0.10423240  0.94250061    -0.25400
N1019       N  0.77767447  0.03337388  0.93504769    -0.82800
H1020       H  0.78081693  0.04327951  0.98044555     0.12900
C1021       C  0.78886547  0.08521962  0.00617123     0.02300
N1022       N  0.79348870  0.13066548  0.97757294    -0.81400
H1023       H  0.78968411  0.12149575  0.93218033     0.17800
C1024       C  0.81239231  0.09143656  0.01645628    -0.26200
C1025       C  0.81509649  0.09217305  0.04074501     0.35800
C1026       C  0.79367483  0.08684740  0.05501646    -0.20300
C1027       C  0.77017648  0.08059173  0.04461442    -0.25500
C1028       C  0.76751851  0.07991838  0.02036130     0.27200
H1029       H  0.82877613  0.09535106  0.00544769     0.12900
N1030       N  0.83958251  0.09781154  0.05091107    -0.82800
H1031       H  0.75366063  0.07669723  0.05546351     0.17800
N1032       N  0.74316451  0.07414824  0.01003002    -0.81400
H1033       H  0.85325881  0.10132903  0.03802921     0.33400
H1034       H  0.84557086  0.08143637  0.05984107     0.37900
H1035       H  0.72939484  0.07065776  0.02283552     0.33400
H1036       H  0.73721814  0.09046763  0.00099904     0.30100
H1037       H  0.79508247  0.14512579  0.96506831     0.33400
H1038       H  0.77722712  0.13483684  0.98743094     0.30100
H1039       H  0.79466882  0.02870690  0.92647111     0.37900
H1040       H  0.77502992  0.01932176  0.94779058     0.33400
C1041       C  0.22997473  0.95481783  0.19187439    -0.20300
C1042       C  0.25325668  0.96876215  0.19343768     0.35900
C1043       C  0.25759355  0.98492011  0.21274037    -0.26300
C1044       C  0.23907282  0.98756782  0.23022112     0.02300
C1045       C  0.21626271  0.97328226  0.22896169     0.27100
C1046       C  0.21203081  0.95709097  0.21001398    -0.25400
N1047       N  0.27237295  0.96657960  0.17562284    -0.82800
H1048       H  0.27510011  0.99602940  0.21384365     0.12900
C1049       C  0.24211936  0.00662618  0.24910679     0.02300
N1050       N  0.19701211  0.97602799  0.24664337    -0.81400
H1051       H  0.19404476  0.94676122  0.20916872     0.17800
C1052       C  0.23000011  0.03036864  0.24664110    -0.26200
C1053       C  0.22588759  0.04639505  0.26585183     0.35800
C1054       C  0.23386688  0.03831763  0.28817089    -0.20300
C1055       C  0.24829233  0.01567042  0.29012610    -0.25500
C1056       C  0.25230863  0.99962526  0.27081278     0.27200
H1057       H  0.22232191  0.03568222  0.22986611     0.12900
N1058       N  0.21266076  0.07030336  0.26288352    -0.82800
H1059       H  0.25485131  0.00948899  0.30703784     0.17800
N1060       N  0.26567460  0.97575267  0.27334741    -0.81400
H1061       H  0.20779255  0.07317935  0.24549604     0.33400
H1062       H  0.22536335  0.08501881  0.26731780     0.37900
H1063       H  0.27214138  0.97351341  0.29037438     0.33400
H1064       H  0.25262507  0.96089646  0.27036701     0.30100
H1065       H  0.18099107  0.96472132  0.24290481     0.33400
H1066       H  0.20458435  0.96898125  0.26215122     0.30100
H1067       H  0.26534121  0.97575433  0.16083238     0.37900
H1068       H  0.28893880  0.97658889  0.18030156     0.33400
C1069       C  0.19028626  0.14159440  0.29619503    -0.20300
C1070       C  0.21235985  0.15020850  0.28433449     0.35900
C1071       C  0.20976553  0.16062565  0.26190014    -0.26300
C1072       C  0.18560991  0.16230511  0.25148551     0.02300
C1073       C  0.16352482  0.15503843  0.26390240     0.27100
C1074       C  0.16610071  0.14491995  0.28619044    -0.25400
N1075       N  0.23726021  0.14697534  0.29445746    -0.82800
H1076       H  0.22659853  0.16610545  0.25205626     0.12900
C1077       C  0.18314668  0.16800892  0.22661347     0.02300
N1078       N  0.13873462  0.15630639  0.25312033    -0.81400
H1079       H  0.14920367  0.13824911  0.29535881     0.17800
C1080       C  0.18189023  0.14711053  0.21145389    -0.26200
C1081       C  0.17050592  0.14962926  0.18974517     0.35800
C1082       C  0.16066115  0.17363090  0.18291637    -0.20300
C1083       C  0.16487062  0.19522145  0.19683855    -0.25500
C1084       C  0.17583797  0.19255593  0.21894451     0.27200
H1085       H  0.18767836  0.12825736  0.21735207     0.12900
N1086       N  0.16848473  0.12740314  0.17528206    -0.82800
H1087       H  0.15753329  0.21366973  0.19136839     0.17800
N1088       N  0.17829819  0.21427569  0.23407669    -0.81400
H1089       H  0.14920176  0.12300196  0.17265144     0.33400
H1090       H  0.17685150  0.13169998  0.15925905     0.37900
H1091       H  0.17217058  0.23094499  0.22569841     0.33400
H1092       H  0.16601383  0.21148813  0.24818077     0.30100
H1093       H  0.12456492  0.14927206  0.26428783     0.33400
H1094       H  0.13450443  0.17560786  0.25023589     0.30100
H1095       H  0.24071446  0.12730304  0.29584086     0.37900
H1096       H  0.25139948  0.15441173  0.28347261     0.33400
C1097       C  0.21755773  0.08119805  0.55336788    -0.20300
C1098       C  0.20918654  0.10331572  0.54120365     0.35900
C1099       C  0.20896142  0.10328074  0.51681864    -0.26300
C1100       C  0.21669767  0.08176802  0.50413390     0.02300
C1101       C  0.22495624  0.05971135  0.51611242     0.27100
C1102       C  0.22543160  0.05970889  0.54050613    -0.25400
N1103       N  0.20050652  0.12563765  0.55345460    -0.82800
H1104       H  0.20287391  0.12029776  0.50757571     0.12900
C1105       C  0.21614069  0.08273283  0.47831295     0.02300
N1106       N  0.23246566  0.03724965  0.50345001    -0.81400
H1107       H  0.23175807  0.04262832  0.54949889     0.17800
C1108       C  0.23860453  0.07776970  0.46574028    -0.26200
C1109       C  0.23895611  0.07882545  0.44136273     0.35800
C1110       C  0.21626387  0.08493416  0.42925981    -0.20300
C1111       C  0.19391022  0.09026056  0.44187540    -0.25500
C1112       C  0.19353635  0.08901080  0.46621924     0.27200
H1113       H  0.25606171  0.07344014  0.47504622     0.12900
N1114       N  0.26238923  0.07428221  0.42895324    -0.82800
H1115       H  0.17648453  0.09496850  0.43266715     0.17800
N1116       N  0.17020936  0.09379187  0.47870363    -0.81400
H1117       H  0.27720685  0.06986283  0.44042912     0.33400
H1118       H  0.26758563  0.09140039  0.42070379     0.37900
H1119       H  0.15537441  0.09829469  0.46727213     0.33400
H1120       H  0.16493842  0.07675865  0.48704592     0.30100
H1121       H  0.23811282  0.02267888  0.51479255     0.33400
H1122       H  0.21633840  0.03044650  0.49466284     0.30100
H1123       H  0.21653088  0.13416405  0.56109772     0.37900
H1124       H  0.19312703  0.13923329  0.54194501     0.33400
C1125       C  0.23473482  0.96526545  0.79825538    -0.20300
C1126       C  0.25371666  0.95532643  0.78336299     0.35900
C1127       C  0.25846424  0.96751747  0.76189140    -0.26300
C1128       C  0.24471807  0.98942073  0.75530131     0.02300
C1129       C  0.22709526  0.00030829  0.77092143     0.27100
C1130       C  0.22227528  0.98810043  0.79219527    -0.25400
N1131       N  0.26696055  0.93217410  0.78942770    -0.82800
H1132       H  0.27175031  0.95908026  0.74968327     0.12900
C1133       C  0.24449299  0.99770592  0.73070167     0.02300
N1134       N  0.21278516  0.02267009  0.76434979    -0.81400
H1135       H  0.20785200  0.99583442  0.80372898     0.17800
C1136       C  0.22676246  0.98585744  0.71600845    -0.26200
C1137       C  0.22144174  0.99596107  0.69400855     0.35800
C1138       C  0.23395355  0.01858403  0.68662834    -0.20300
C1139       C  0.25344146  0.02913341  0.70042366    -0.25500
C1140       C  0.25880417  0.01889138  0.72257030     0.27200
H1141       H  0.21610753  0.96934950  0.72223684     0.12900
N1142       N  0.20273652  0.98384002  0.67937346    -0.82800
H1143       H  0.26328524  0.04629096  0.69458695     0.17800
N1144       N  0.27831372  0.03010102  0.73689996    -0.81400
H1145       H  0.19513478  0.96752150  0.68741946     0.33400
H1146       H  0.21223842  0.97752488  0.66450098     0.37900
H1147       H  0.28723759  0.04532207  0.72822392     0.33400
H1148       H  0.26950032  0.03789226  0.75152633     0.30100
H1149       H  0.19992158  0.02773248  0.77745102     0.33400
H1150       H  0.22565427  0.03794089  0.76276047     0.30100
H1151       H  0.25352221  0.91728069  0.78982696     0.37900
H1152       H  0.28029520  0.92747015  0.77660616     0.33400
C1153       C  0.13579542  0.16637048  0.79876464    -0.20300
C1154       C  0.14404797  0.14088421  0.79530232     0.35900
C1155       C  0.15701058  0.13473717  0.77487423    -0.26300
C1156       C  0.16264562  0.15344221  0.75806882     0.02300
C1157       C  0.15588449  0.17921400  0.76231047     0.27100
C1158       C  0.14210164  0.18533308  0.78249556    -0.25400
N1159       N  0.13858956  0.12050098  0.81144330    -0.82800
H1160       H  0.16168388  0.11483886  0.77167672     0.12900
C1161       C  0.17259562  0.14493095  0.73517667     0.02300
N1162       N  0.16259816  0.19890334  0.74590675    -0.81400
H1163       H  0.13579556  0.20483763  0.78534777     0.17800
C1164       C  0.15910551  0.15179560  0.71506231    -0.26200
C1165       C  0.16475849  0.14061225  0.69355932     0.35800
C1166       C  0.18376943  0.12157534  0.69233406    -0.20300
C1167       C  0.19806825  0.11548346  0.71212628    -0.25500
C1168       C  0.19303487  0.12737501  0.73347215     0.27200
H1169       H  0.14316428  0.16492780  0.71633115     0.12900
N1170       N  0.14997439  0.14710953  0.67338710    -0.82800
H1171       H  0.21289285  0.10106243  0.71097342     0.17800
N1172       N  0.20809139  0.12121852  0.75355427    -0.81400
H1173       H  0.13568914  0.16028794  0.67759733     0.33400
H1174       H  0.16218735  0.15647807  0.66173920     0.37900
H1175       H  0.22222057  0.10784843  0.74939671     0.33400
H1176       H  0.21759448  0.13794432  0.75864579     0.30100
H1177       H  0.15608564  0.21675499  0.75156628     0.33400
H1178       H  0.18256607  0.20003166  0.74534337     0.30100
H1179       H  0.12887848  0.12703521  0.82602967     0.37900
H1180       H  0.15609757  0.11346107  0.81741757     0.33400
C1181       C  0.82500977  0.83812308  0.30058005    -0.20300
C1182       C  0.84936627  0.83154483  0.29199037     0.35900
C1183       C  0.85133096  0.81967749  0.27031193    -0.26300
C1184       C  0.82944977  0.81454353  0.25708322     0.02300
C1185       C  0.80499625  0.81876601  0.26661984     0.27100
C1186       C  0.80297520  0.83033906  0.28858284    -0.25400
N1187       N  0.87200960  0.83814512  0.30484250    -0.82800
H1188       H  0.87006749  0.81629792  0.26284909     0.12900
C1189       C  0.83314585  0.81103918  0.23192725     0.02300
N1190       N  0.78247715  0.81242441  0.25353232    -0.81400
H1191       H  0.78429226  0.83518279  0.29543498     0.17800
C1192       C  0.83674514  0.78652957  0.22251737    -0.26200
C1193       C  0.84661687  0.78370589  0.19993333     0.35800
C1194       C  0.85298010  0.80568328  0.18690476    -0.20300
C1195       C  0.84732136  0.83001506  0.19571983    -0.25500
C1196       C  0.83753423  0.83293779  0.21813101     0.27200
H1197       H  0.83350289  0.76971435  0.23319527     0.12900
N1198       N  0.85204469  0.75870864  0.19103218    -0.82800
H1199       H  0.85229864  0.84689543  0.18565361     0.17800
N1200       N  0.83403094  0.85812005  0.22772412    -0.81400
H1201       H  0.86469503  0.74966679  0.20241638     0.33400
H1202       H  0.83497189  0.74820403  0.19091740     0.37900
H1203       H  0.83898372  0.87223409  0.21560895     0.33400
H1204       H  0.81453243  0.86039702  0.23116680     0.30100
H1205       H  0.76600905  0.81660860  0.26309901     0.33400
H1206       H  0.78208365  0.82421027  0.23886081     0.30100
H1207       H  0.87147349  0.82789808  0.32043570     0.37900
H1208       H  0.88842925  0.83219080  0.29601783     0.33400
C1209       C  0.78421640  0.03332081  0.19491061    -0.20300
C1210       C  0.76382956  0.01525146  0.19533337     0.35900
C1211       C  0.76076977  0.99896231  0.21476181    -0.26300
C1212       C  0.77779333  0.00003841  0.23349540     0.02300
C1213       C  0.79757419  0.01838286  0.23344450     0.27100
C1214       C  0.80037296  0.03494985  0.21440539    -0.25400
N1215       N  0.74659341  0.01303267  0.17604298    -0.82800
H1216       H  0.74570121  0.98464363  0.21489906     0.12900
C1217       C  0.77681982  0.98030474  0.25205268     0.02300
N1218       N  0.81557426  0.01922209  0.25227887    -0.81400
H1219       H  0.81611806  0.04850357  0.21447291     0.17800
C1220       C  0.79156984  0.95817473  0.24935909    -0.26200
C1221       C  0.79529409  0.94100996  0.26786984     0.35800
C1222       C  0.78421620  0.94633001  0.28982397    -0.20300
C1223       C  0.76780070  0.96757339  0.29186031    -0.25500
C1224       C  0.76411258  0.98468646  0.27321707     0.27200
H1225       H  0.80110317  0.95485859  0.23293876     0.12900
N1226       N  0.81104224  0.91875366  0.26456992    -0.82800
H1227       H  0.75892450  0.97170524  0.30841113     0.17800
N1228       N  0.74803418  0.00678940  0.27585296    -0.81400
H1229       H  0.81814324  0.91805428  0.24762354     0.33400
H1230       H  0.79936035  0.90260103  0.26668562     0.37900
H1231       H  0.73986999  0.00710668  0.29241088     0.33400
H1232       H  0.75958395  0.02312125  0.27456168     0.30100
H1233       H  0.82953822  0.03325307  0.24930041     0.33400
H1234       H  0.80568122  0.02477809  0.26718808     0.30100
H1235       H  0.75667992  0.00452451  0.16243827     0.37900
H1236       H  0.73161021  0.00042897  0.18002704     0.33400
C1237       C  0.78523230  0.90642917  0.55458208    -0.20300
C1238       C  0.78964451  0.92893498  0.54127536     0.35900
C1239       C  0.79114756  0.92720370  0.51696600    -0.26300
C1240       C  0.78826699  0.90366025  0.50562846     0.02300
C1241       C  0.78368005  0.88130334  0.51871897     0.27100
C1242       C  0.78229838  0.88288608  0.54299700    -0.25400
N1243       N  0.79336423  0.95333366  0.55234186    -0.82800
H1244       H  0.79483424  0.94428505  0.50675085     0.12900
C1245       C  0.79059036  0.90254956  0.48001249     0.02300
N1246       N  0.78045376  0.85707219  0.50724758    -0.81400
H1247       H  0.77890334  0.86553924  0.55290636     0.17800
C1248       C  0.81069031  0.88863216  0.47014141    -0.26200
C1249       C  0.81357322  0.88683364  0.44596691     0.35800
C1250       C  0.79564119  0.89907649  0.43122835    -0.20300
C1251       C  0.77566536  0.91329207  0.44131656    -0.25500
C1252       C  0.77291582  0.91505253  0.46551882     0.27200
H1253       H  0.82433102  0.87926310  0.48144252     0.12900
N1254       N  0.83468195  0.87265078  0.43650400    -0.82800
H1255       H  0.76181084  0.92274895  0.43031305     0.17800
N1256       N  0.75202756  0.92913808  0.47546995    -0.81400
H1257       H  0.84541838  0.86414782  0.44970716     0.33400
H1258       H  0.84684598  0.88576955  0.42825032     0.37900
H1259       H  0.74072651  0.93726008  0.46246200     0.33400
H1260       H  0.74037407  0.91606260  0.48435637     0.30100
H1261       H  0.77739763  0.84241752  0.51934248     0.33400
H1262       H  0.76386538  0.85819372  0.49719147     0.30100
H1263       H  0.77570866  0.95896341  0.55913990     0.37900
H1264       H  0.79844262  0.96735089  0.54017644     0.33400
C1265       C  0.82584162  0.85679628  0.68926486    -0.20300
C1266       C  0.81216220  0.83439359  0.69536479     0.35900
C1267       C  0.81952303  0.82053396  0.71528629    -0.26300
C1268       C  0.84034661  0.82874249  0.72873378     0.02300
C1269       C  0.85417768  0.85085360  0.72230540     0.27100
C1270       C  0.84675472  0.86463567  0.70269318    -0.25400
N1271       N  0.79071338  0.82617317  0.68166848    -0.82800
H1272       H  0.80899276  0.80352595  0.72044760     0.12900
C1273       C  0.84769254  0.81512080  0.75012521     0.02300
N1274       N  0.87569863  0.85925721  0.73588326    -0.81400
H1275       H  0.85742258  0.88167754  0.69780805     0.17800
C1276       C  0.87092906  0.80185373  0.75024289    -0.26200
C1277       C  0.88329138  0.79611605  0.77116165     0.35800
C1278       C  0.87212577  0.80401523  0.79229763    -0.20300
C1279       C  0.84744259  0.81457621  0.79221165    -0.25500
C1280       C  0.83516942  0.82046699  0.77120502     0.27200
H1281       H  0.88032140  0.79770272  0.73391523     0.12900
N1282       N  0.90760579  0.78327916  0.77098713    -0.82800
H1283       H  0.83859659  0.82010021  0.80844284     0.17800
N1284       N  0.81085027  0.83326952  0.77116148    -0.81400
H1285       H  0.91323795  0.77903438  0.75402513     0.33400
H1286       H  0.90521739  0.76573297  0.77952965     0.37900
H1287       H  0.80414982  0.83563960  0.78810969     0.33400
H1288       H  0.81364247  0.85167321  0.76438576     0.30100
H1289       H  0.88409196  0.87560348  0.72855990     0.33400
H1290       H  0.86882530  0.86465371  0.75218426     0.30100
H1291       H  0.77662352  0.84028707  0.68286868     0.37900
H1292       H  0.78276565  0.80938013  0.68855475     0.33400
C1293       C  0.77102925  0.95561078  0.69222032    -0.20300
C1294       C  0.78254335  0.94888271  0.71349045     0.35900
C1295       C  0.77616199  0.96243753  0.73365509    -0.26300
C1296       C  0.75842843  0.98255351  0.73312592     0.02300
C1297       C  0.74591319  0.98843367  0.71208785     0.27100
C1298       C  0.75221718  0.97472949  0.69181539    -0.25400
N1299       N  0.80107457  0.92859615  0.71441907    -0.82800
H1300       H  0.78590354  0.95799186  0.74973359     0.12900
C1301       C  0.75570574  0.99877574  0.75420960     0.02300
N1302       N  0.72740871  0.00871004  0.71130861    -0.81400
H1303       H  0.74338079  0.97982495  0.67546745     0.17800
C1304       C  0.76274970  0.02474088  0.75292170    -0.26200
C1305       C  0.76651366  0.03927195  0.77314283     0.35800
C1306       C  0.76295024  0.02766486  0.79499689    -0.20300
C1307       C  0.75382883  0.00242453  0.79633082    -0.25500
C1308       C  0.75016870  0.98780760  0.77609091     0.27200
H1309       H  0.76708882  0.03318307  0.73618338     0.12900
N1310       N  0.77533301  0.06536342  0.77168775    -0.82800
H1311       H  0.75126871  0.99357930  0.81320069     0.17800
N1312       N  0.74207439  0.96150664  0.77765649    -0.81400
H1313       H  0.77728817  0.07103890  0.75437545     0.33400
H1314       H  0.76118577  0.07698972  0.77894428     0.37900
H1315       H  0.73910052  0.95624811  0.79495922     0.33400
H1316       H  0.72435839  0.96002053  0.76936667     0.30100
H1317       H  0.72013245  0.01077225  0.69453372     0.33400
H1318       H  0.71204866  0.00328695  0.72189107     0.30100
H1319       H  0.79163303  0.91154819  0.71015791     0.37900
H1320       H  0.80800549  0.92625710  0.73128438     0.33400
C1321       C  0.96153948  0.76482696  0.19497795    -0.20300
C1322       C  0.98220913  0.74735285  0.19312196     0.35900
C1323       C  0.99903883  0.74422400  0.21197601    -0.26300
C1324       C  0.99538317  0.75773880  0.23264289     0.02300
C1325       C  0.97390368  0.77367304  0.23514280     0.27100
C1326       C  0.95711184  0.77688570  0.21640923    -0.25400
N1327       N  0.98677035  0.73368423  0.17190893    -0.82800
H1328       H  0.01564670  0.73199578  0.21026599     0.12900
C1329       C  0.01575089  0.75809809  0.25041812     0.02300
N1330       N  0.97016169  0.78778564  0.25626229    -0.81400
H1331       H  0.94126499  0.79005180  0.21824514     0.17800
C1332       C  0.03434757  0.77733939  0.24894636    -0.26200
C1333       C  0.05173459  0.78143909  0.26700076     0.35800
C1334       C  0.05070772  0.76585368  0.28716914    -0.20300
C1335       C  0.03287174  0.74555811  0.28795476    -0.25500
C1336       C  0.01534881  0.74154331  0.26972715     0.27200
H1337       H  0.03464606  0.79005498  0.23404912     0.12900
N1338       N  0.06951887  0.80231764  0.26509315    -0.82800
H1339       H  0.03196638  0.73335900  0.30315667     0.17800
N1340       N  0.99698442  0.72100568  0.27085649    -0.81400
H1341       H  0.08066740  0.79949436  0.25025615     0.33400
H1342       H  0.05914997  0.81925076  0.26289920     0.37900
H1343       H  0.99936660  0.71042381  0.28611051     0.33400
H1344       H  0.97874529  0.72909010  0.27170361     0.30100
H1345       H  0.95385958  0.79927153  0.25512176     0.33400
H1346       H  0.96665992  0.77455474  0.26952938     0.30100
H1347       H  0.97140819  0.72107716  0.16950842     0.37900
H1348       H  0.00315914  0.72234938  0.17326856     0.33400
C1349       C  0.19955021  0.84802312  0.19367333    -0.20300
C1350       C  0.19492243  0.86102894  0.21474604     0.35900
C1351       C  0.19308971  0.84707765  0.23540663    -0.26300
C1352       C  0.19636202  0.82047048  0.23575965     0.02300
C1353       C  0.20300179  0.80762283  0.21512836     0.27100
C1354       C  0.20460963  0.82158299  0.19417892    -0.25400
N1355       N  0.19192591  0.88840186  0.21511062    -0.82800
H1356       H  0.18800926  0.85693946  0.25127299     0.12900
C1357       C  0.18876157  0.80672844  0.25723871     0.02300
N1358       N  0.20739557  0.78046711  0.21549832    -0.81400
H1359       H  0.20869599  0.81165364  0.17812570     0.17800
C1360       C  0.16670404  0.79135424  0.25653517    -0.26200
C1361       C  0.15292680  0.78591922  0.27688275     0.35800
C1362       C  0.16163904  0.79581902  0.29816719    -0.20300
C1363       C  0.18531334  0.80835356  0.29930355    -0.25500
C1364       C  0.19903945  0.81395083  0.27890853     0.27200
H1365       H  0.15883839  0.78577144  0.23991434     0.12900
N1366       N  0.12917374  0.77197451  0.27589561    -0.82800
H1367       H  0.19196283  0.81568478  0.31580371     0.17800
N1368       N  0.22231239  0.82865801  0.27984655    -0.81400
H1369       H  0.12520465  0.76633886  0.25888804     0.33400
H1370       H  0.13143506  0.75517107  0.28557838     0.37900
H1371       H  0.22707858  0.83284198  0.29702978     0.33400
H1372       H  0.23697460  0.81715423  0.27331642     0.30100
H1373       H  0.21208231  0.77393031  0.19890864     0.33400
H1374       H  0.22339108  0.77717767  0.22594116     0.30100
H1375       H  0.20965309  0.89637768  0.21070087     0.37900
H1376       H  0.18776530  0.89483424  0.23184988     0.33400
C1377       C  0.89143432  0.87083354  0.36839475    -0.20300
C1378       C  0.91215466  0.88824362  0.37028596     0.35900
C1379       C  0.93739201  0.87883480  0.37094913    -0.26300
C1380       C  0.94245549  0.85245707  0.36956106     0.02300
C1381       C  0.92175740  0.83505054  0.36857638     0.27100
C1382       C  0.89655730  0.84438578  0.36837477    -0.25400
N1383       N  0.90760479  0.91538285  0.37111364    -0.82800
H1384       H  0.95328566  0.89216956  0.37202656     0.12900
C1385       C  0.96940237  0.84330804  0.36759263     0.02300
N1386       N  0.92642095  0.80798174  0.36677828    -0.81400
H1387       H  0.88087732  0.83085868  0.36685922     0.17800
C1388       C  0.97878878  0.82512612  0.38339871    -0.26200
C1389       C  0.00333866  0.81436117  0.38079947     0.35800
C1390       C  0.01888296  0.82182624  0.36177025    -0.20300
C1391       C  0.00979552  0.84097368  0.34665084    -0.25500
C1392       C  0.98527767  0.85159418  0.34922984     0.27200
H1393       H  0.96671526  0.81908389  0.39770499     0.12900
N1394       N  0.01225383  0.79571192  0.39727022    -0.82800
H1395       H  0.02149492  0.84713084  0.33214033     0.17800
N1396       N  0.97612323  0.87017008  0.33278246    -0.81400
H1397       H  0.99823532  0.79190033  0.40977679     0.33400
H1398       H  0.02776730  0.80381306  0.40607345     0.37900
H1399       H  0.99017641  0.87436823  0.32040781     0.33400
H1400       H  0.96080134  0.86188524  0.32384993     0.30100
H1401       H  0.90917910  0.79777364  0.36625103     0.33400
H1402       H  0.93559692  0.80474435  0.35093493     0.30100
H1403       H  0.89757733  0.91918124  0.38641904     0.37900
H1404       H  0.92487278  0.92549565  0.37214892     0.33400
C1405       C  0.12935222  0.87108211  0.36570304    -0.20300
C1406       C  0.11203342  0.89191618  0.36526738     0.35900
C1407       C  0.12141376  0.91715087  0.36722481    -0.26300
C1408       C  0.14770076  0.92224338  0.36944964     0.02300
C1409       C  0.16482642  0.90148030  0.37124080     0.27100
C1410       C  0.15545945  0.87617762  0.36958506    -0.25400
N1411       N  0.08504740  0.88751260  0.36234886    -0.82800
H1412       H  0.10820488  0.93307780  0.36627544     0.12900
C1413       C  0.15716613  0.94924391  0.36749830     0.02300
N1414       N  0.19180577  0.90616397  0.37373724    -0.81400
H1415       H  0.16888383  0.86041955  0.37009370     0.17800
C1416       C  0.17261719  0.96004225  0.38493115    -0.26200
C1417       C  0.18284948  0.98507108  0.38269352     0.35800
C1418       C  0.17763925  0.99953330  0.36248507    -0.20300
C1419       C  0.16159537  0.98878445  0.34545091    -0.25500
C1420       C  0.15151022  0.96395687  0.34762854     0.27200
H1421       H  0.17671119  0.94886158  0.40032403     0.12900
N1422       N  0.19833626  0.99574458  0.40085609    -0.82800
H1423       H  0.15735652  0.99954499  0.32984836     0.17800
N1424       N  0.13601083  0.95338125  0.32937977    -0.81400
H1425       H  0.20051016  0.98254225  0.41436766     0.33400
H1426       H  0.18843633  0.01135215  0.40776320     0.37900
H1427       H  0.13339652  0.96674496  0.31606430     0.33400
H1428       H  0.14603234  0.93802569  0.32216979     0.30100
H1429       H  0.20179619  0.88888898  0.37491398     0.33400
H1430       H  0.19819668  0.91528577  0.35863008     0.30100
H1431       H  0.07852571  0.87753235  0.37696051     0.37900
H1432       H  0.07508488  0.90484738  0.36194008     0.33400
C1433       C  0.99874188  0.81511557  0.60653067    -0.20300
C1434       C  0.99651488  0.83995024  0.59697510     0.35900
C1435       C  0.97209437  0.85061137  0.59387472    -0.26300
C1436       C  0.94995794  0.83695532  0.60009846     0.02300
C1437       C  0.95213593  0.81125368  0.60778124     0.27100
C1438       C  0.97650974  0.80063090  0.61070529    -0.25400
N1439       N  0.01904287  0.85457969  0.59129436    -0.82800
H1440       H  0.97033146  0.87025058  0.58794573     0.12900
C1441       C  0.92590282  0.85149135  0.60304641     0.02300
N1442       N  0.93030691  0.79601193  0.61439315    -0.81400
H1443       H  0.97800922  0.78150516  0.61794231     0.17800
C1444       C  0.90640924  0.85018456  0.58640077    -0.26200
C1445       C  0.88281360  0.86264486  0.59002719     0.35800
C1446       C  0.87878749  0.87649477  0.61081177    -0.20300
C1447       C  0.89898030  0.87862104  0.62680023    -0.25500
C1448       C  0.92232873  0.86615438  0.62321608     0.27200
H1449       H  0.90948634  0.83906420  0.57080941     0.12900
N1450       N  0.86298312  0.86104914  0.57284792    -0.82800
H1451       H  0.89624002  0.88915567  0.64276960     0.17800
N1452       N  0.94237453  0.86790560  0.64021923    -0.81400
H1453       H  0.86898608  0.85002129  0.55875144     0.33400
H1454       H  0.85988895  0.87956660  0.56649886     0.37900
H1455       H  0.93687074  0.87971580  0.65395661     0.33400
H1456       H  0.94505534  0.84961433  0.64722691     0.30100
H1457       H  0.92977239  0.78004963  0.60347911     0.33400
H1458       H  0.91316513  0.80575937  0.61177882     0.30100
H1459       H  0.02862313  0.84489611  0.57803440     0.37900
H1460       H  0.01407430  0.87253740  0.58463899     0.33400
C1461       C  0.10915861  0.87016494  0.61489840    -0.20300
C1462       C  0.09971123  0.89209055  0.62655466     0.35900
C1463       C  0.11225065  0.91579860  0.62381404    -0.26300
C1464       C  0.13333182  0.91870104  0.60889917     0.02300
C1465       C  0.14178599  0.89725033  0.59613518     0.27100
C1466       C  0.12981781  0.87324182  0.59943422    -0.25400
N1467       N  0.07766800  0.89028217  0.64144492    -0.82800
H1468       H  0.10574586  0.93211480  0.63376378     0.12900
C1469       C  0.14677671  0.94408875  0.60776181     0.02300
N1470       N  0.16261117  0.89987403  0.57998753    -0.81400
H1471       H  0.13708099  0.85673636  0.59020166     0.17800
C1472       C  0.17335929  0.94540814  0.61130933    -0.26200
C1473       C  0.18627476  0.96912127  0.61288468     0.35800
C1474       C  0.17211288  0.99218660  0.61194961    -0.20300
C1475       C  0.14572239  0.99079751  0.60730383    -0.25500
C1476       C  0.13304544  0.96712941  0.60480506     0.27200
H1477       H  0.18402380  0.92782952  0.61361354     0.12900
N1478       N  0.21347845  0.96968199  0.61648497    -0.82800
H1479       H  0.13474888  0.00832499  0.60606224     0.17800
N1480       N  0.10615039  0.96639965  0.59962375    -0.81400
H1481       H  0.22072230  0.95109123  0.61786780     0.33400
H1482       H  0.22179325  0.97765825  0.60161751     0.37900
H1483       H  0.09882742  0.98494644  0.59810083     0.33400
H1484       H  0.10402917  0.95775114  0.58340341     0.30100
H1485       H  0.16658703  0.88232465  0.57207204     0.33400
H1486       H  0.15668176  0.91232179  0.56683855     0.30100
H1487       H  0.06194879  0.88574945  0.63101063     0.37900
H1488       H  0.07363406  0.90798616  0.64904984     0.33400
C1489       C  0.08784194  0.77221356  0.55298892    -0.20300
C1490       C  0.11138273  0.76882471  0.54127049     0.35900
C1491       C  0.11201673  0.76952172  0.51688381    -0.26300
C1492       C  0.08971092  0.77342510  0.50383730     0.02300
C1493       C  0.06608897  0.77613332  0.51545037     0.27100
C1494       C  0.06539036  0.77534331  0.53983963    -0.25400
N1495       N  0.13454448  0.76446746  0.55407964    -0.82800
H1496       H  0.13005967  0.76692497  0.50792598     0.12900
C1497       C  0.09155371  0.77492350  0.47806198     0.02300
N1498       N  0.04298920  0.78020381  0.50246084    -0.81400
H1499       H  0.04724444  0.77790891  0.54863038     0.17800
C1500       C  0.07703273  0.75816432  0.46434330    -0.26200
C1501       C  0.07835586  0.75896918  0.43995777     0.35800
C1502       C  0.09528472  0.77653894  0.42892998    -0.20300
C1503       C  0.10974874  0.79331084  0.44283994    -0.25500
C1504       C  0.10784162  0.79289439  0.46715809     0.27200
H1505       H  0.06455171  0.74435240  0.47275477     0.12900
N1506       N  0.06261578  0.74189287  0.42655469    -0.82800
H1507       H  0.12257999  0.80701536  0.43474056     0.17800
N1508       N  0.12224633  0.81083408  0.48085958    -0.81400
H1509       H  0.05233242  0.72946005  0.43736979     0.33400
H1510       H  0.04900202  0.75306861  0.41798335     0.37900
H1511       H  0.13341356  0.82270745  0.47025265     0.33400
H1512       H  0.10916711  0.82270887  0.48933006     0.30100
H1513       H  0.02724409  0.78171229  0.51357548     0.33400
H1514       H  0.04474631  0.79783201  0.49394023     0.30100
H1515       H  0.13261604  0.74684712  0.56259447     0.37900
H1516       H  0.15017219  0.76271703  0.54286092     0.33400
C1517       C  0.02521914  0.75744302  0.68633078    -0.20300
C1518       C  0.03642723  0.73984356  0.70189956     0.35900
C1519       C  0.02541947  0.73629833  0.72406337    -0.26300
C1520       C  0.00350103  0.74993204  0.73073325     0.02300
C1521       C  0.99174162  0.76665070  0.71480714     0.27100
C1522       C  0.00257643  0.77001719  0.69274881    -0.25400
N1523       N  0.05993934  0.72727530  0.69591459    -0.82800
H1524       H  0.03464339  0.72389793  0.73658484     0.12900
C1525       C  0.99537978  0.75030519  0.75535254     0.02300
N1526       N  0.97002380  0.78168661  0.72176382    -0.81400
H1527       H  0.99406890  0.78367910  0.68088125     0.17800
C1528       C  0.00728041  0.76800825  0.77006317    -0.26200
C1529       C  0.99712624  0.77338885  0.79203266     0.35800
C1530       C  0.97446056  0.76095223  0.79931695    -0.20300
C1531       C  0.96380430  0.74157659  0.78547299    -0.25500
C1532       C  0.97406517  0.73615504  0.76339309     0.27200
H1533       H  0.02383958  0.77858340  0.76388025     0.12900
N1534       N  0.00924935  0.79203579  0.80674494    -0.82800
H1535       H  0.94657956  0.73183634  0.79124380     0.17800
N1536       N  0.96277354  0.71669145  0.74903545    -0.81400
H1537       H  0.02563220  0.79955779  0.79878677     0.33400
H1538       H  0.01540703  0.78247303  0.82166070     0.37900
H1539       H  0.94744084  0.70790929  0.75763930     0.33400
H1540       H  0.95515659  0.72552235  0.73433446     0.30100
H1541       H  0.96436756  0.79394113  0.70836599     0.33400
H1542       H  0.95469376  0.76919888  0.72469864     0.30100
H1543       H  0.05602434  0.71473506  0.68225606     0.37900
H1544       H  0.06630751  0.71595305  0.70971183     0.33400
C1545       C  0.12328469  0.80981367  0.69338526    -0.20300
C1546       C  0.14977252  0.80486583  0.69607457     0.35900
C1547       C  0.16191930  0.81137437  0.71708790    -0.26300
C1548       C  0.14823421  0.82286888  0.73519401     0.02300
C1549       C  0.12178751  0.82697219  0.73286005     0.27100
C1550       C  0.10957926  0.82012321  0.71218321    -0.25400
N1551       N  0.16432898  0.79353610  0.67760480    -0.82800
H1552       H  0.18234835  0.80860232  0.71897945     0.12900
C1553       C  0.16206100  0.83466558  0.75481768     0.02300
N1554       N  0.10774644  0.83962353  0.75097682    -0.81400
H1555       H  0.08932234  0.82399980  0.71045462     0.17800
C1556       C  0.17074924  0.85986469  0.75205881    -0.26200
C1557       C  0.18002129  0.87399769  0.77093944     0.35800
C1558       C  0.18030761  0.86268072  0.79330651    -0.20300
C1559       C  0.17315083  0.83672260  0.79566483    -0.25500
C1560       C  0.16392568  0.82260571  0.77660633     0.27200
H1561       H  0.16937863  0.86886649  0.73514884     0.12900
N1562       N  0.18848680  0.89998877  0.76747204    -0.82800
H1563       H  0.17367298  0.82771014  0.81259403     0.17800
N1564       N  0.15626007  0.79626832  0.77932219    -0.81400
H1565       H  0.18639086  0.90549104  0.75013647     0.33400
H1566       H  0.20808966  0.90062751  0.77103295     0.37900
H1567       H  0.15912034  0.79020958  0.79641179     0.33400
H1568       H  0.13660520  0.79500658  0.77625634     0.30100
H1569       H  0.08864579  0.84219553  0.74616526     0.33400
H1570       H  0.10752926  0.82756080  0.76545052     0.30100
H1571       H  0.16644430  0.80738783  0.66461702     0.37900
H1572       H  0.18284748  0.78925557  0.68320909     0.33400
C1573       C  0.85084301  0.18121546  0.29982427    -0.20300
C1574       C  0.83533055  0.15984266  0.29500570     0.35900
C1575       C  0.82459275  0.15729504  0.27284516    -0.26300
C1576       C  0.82939748  0.17568953  0.25557636     0.02300
C1577       C  0.84230637  0.19868319  0.26143498     0.27100
C1578       C  0.85312128  0.20106825  0.28355255    -0.25400
N1579       N  0.83200783  0.14009958  0.31218360    -0.82800
H1580       H  0.81445485  0.13983141  0.26839316     0.12900
C1581       C  0.82652233  0.16743486  0.23120596     0.02300
N1582       N  0.84633499  0.21900256  0.24492184    -0.81400
H1583       H  0.86492273  0.21763918  0.28743600     0.17800
C1584       C  0.80208978  0.16342172  0.22174935    -0.26200
C1585       C  0.79913038  0.15109180  0.20018223     0.35800
C1586       C  0.82110612  0.14294448  0.18804274    -0.20300
C1587       C  0.84543143  0.14783428  0.19721977    -0.25500
C1588       C  0.84841040  0.15978671  0.21871139     0.27200
H1589       H  0.78537239  0.16883048  0.23170977     0.12900
N1590       N  0.77403873  0.14557728  0.19125625    -0.82800
H1591       H  0.86224194  0.14131149  0.18793919     0.17800
N1592       N  0.87349679  0.16241880  0.22870180    -0.81400
H1593       H  0.75997081  0.15278431  0.20235339     0.33400
H1594       H  0.77172120  0.12566037  0.19111328     0.37900
H1595       H  0.88729323  0.15389110  0.21810919     0.33400
H1596       H  0.87799743  0.18192714  0.22911226     0.30100
H1597       H  0.83778865  0.23548940  0.25162610     0.33400
H1598       H  0.83693107  0.21516437  0.22934388     0.30100
H1599       H  0.82243016  0.14821939  0.32628552     0.37900
H1600       H  0.82018323  0.12550584  0.30586415     0.33400
C1601       C  0.96008148  0.21248197  0.28820840    -0.20300
C1602       C  0.97560018  0.23453624  0.28544667     0.35900
C1603       C  0.99245091  0.23623797  0.26628900    -0.26300
C1604       C  0.99392149  0.21645348  0.24984858     0.02300
C1605       C  0.97730668  0.19512404  0.25193478     0.27100
C1606       C  0.96065169  0.19353958  0.27086965    -0.25400
N1607       N  0.97449328  0.25487895  0.30215848    -0.82800
H1608       H  0.00498449  0.25271042  0.26448187     0.12900
C1609       C  0.01401745  0.21722680  0.23160218     0.02300
N1610       N  0.97696149  0.17448473  0.23542004    -0.81400
H1611       H  0.94879146  0.17654009  0.27244256     0.17800
C1612       C  0.03630325  0.20281869  0.23485510    -0.26200
C1613       C  0.05410449  0.19941126  0.21678173     0.35800
C1614       C  0.04938464  0.21056215  0.19475211    -0.20300
C1615       C  0.02770409  0.22631292  0.19208685    -0.25500
C1616       C  0.00987186  0.22952230  0.21020398     0.27200
H1617       H  0.03931758  0.19339831  0.25138896     0.12900
N1618       N  0.07647964  0.18401927  0.22061575    -0.82800
H1619       H  0.02382969  0.23504015  0.17540718     0.17800
N1620       N  0.98712065  0.24443098  0.20671151    -0.81400
H1621       H  0.07671979  0.17679179  0.23753870     0.33400
H1622       H  0.09245119  0.19602974  0.21903259     0.37900
H1623       H  0.98695323  0.25232850  0.19003593     0.33400
H1624       H  0.97143996  0.23196886  0.20769278     0.30100
H1625       H  0.98350576  0.15801435  0.24385987     0.33400
H1626       H  0.98922619  0.17782213  0.22144481     0.30100
H1627       H  0.95608523  0.26263152  0.30149693     0.37900
H1628       H  0.98713148  0.26964122  0.29760774     0.33400
C1629       C  0.99425465  0.16004453  0.36303986    -0.20300
C1630       C  0.01122547  0.16929649  0.38030012     0.35900
C1631       C  0.03564991  0.15811439  0.38271480    -0.26300
C1632       C  0.04395385  0.13844147  0.36790911     0.02300
C1633       C  0.02686719  0.12882158  0.35110632     0.27100
C1634       C  0.00226689  0.13940378  0.34911597    -0.25400
N1635       N  0.00394567  0.19013980  0.39514516    -0.82800
H1636       H  0.04864313  0.16531970  0.39580825     0.12900
C1637       C  0.07105937  0.12930487  0.36891453     0.02300
N1638       N  0.03482760  0.10886239  0.33555075    -0.81400
H1639       H  0.98957514  0.13191343  0.33592218     0.17800
C1640       C  0.07630716  0.10294398  0.37078783    -0.26200
C1641       C  0.10150305  0.09349399  0.36899209     0.35800
C1642       C  0.12201662  0.11081883  0.36551333    -0.20300
C1643       C  0.11682416  0.13725927  0.36499975    -0.25500
C1644       C  0.09168607  0.14664261  0.36634388     0.27200
H1645       H  0.06056271  0.08962849  0.37317381     0.12900
N1646       N  0.10621641  0.06641697  0.37044333    -0.82800
H1647       H  0.13236771  0.15074920  0.36233840     0.17800
N1648       N  0.08699079  0.17368396  0.36415975    -0.81400
H1649       H  0.08907748  0.05632788  0.37276480     0.33400
H1650       H  0.11720958  0.06317470  0.38528745     0.37900
H1651       H  0.10418864  0.18383656  0.36253133     0.33400
H1652       H  0.07689390  0.17659416  0.34874703     0.30100
H1653       H  0.01996860  0.10376217  0.32433661     0.33400
H1654       H  0.04955146  0.11625500  0.32518929     0.30100
H1655       H  0.00328665  0.20670202  0.38493040     0.37900
H1656       H  0.01798798  0.19349245  0.40768051     0.33400
C1657       C  0.88234223  0.11023844  0.37009698    -0.20300
C1658       C  0.89998685  0.09033576  0.37446232     0.35900
C1659       C  0.89101467  0.06504245  0.37703763    -0.26300
C1660       C  0.86488014  0.05913612  0.37498112     0.02300
C1661       C  0.84713827  0.07918111  0.37196204     0.27100
C1662       C  0.85603337  0.10453905  0.36990280    -0.25400
N1663       N  0.92695009  0.09573428  0.37571898    -0.82800
H1664       H  0.90455928  0.04964550  0.37971266     0.12900
C1665       C  0.85669599  0.03185785  0.37318455     0.02300
N1666       N  0.82027939  0.07359670  0.36982702    -0.81400
H1667       H  0.84238803  0.11970865  0.36665928     0.17800
C1668       C  0.83789134  0.02191519  0.38817175    -0.26200
C1669       C  0.82806282  0.99690828  0.38524308     0.35800
C1670       C  0.83720417  0.98158053  0.36676517    -0.20300
C1671       C  0.85687987  0.99134521  0.35254154    -0.25500
C1672       C  0.86650944  0.01623357  0.35538863     0.27200
H1673       H  0.83061674  0.03388722  0.40200047     0.12900
N1674       N  0.80869665  0.98732449  0.40075876    -0.82800
H1675       H  0.86429729  0.97985338  0.33845434     0.17800
N1676       N  0.88565354  0.02601940  0.33971226    -0.81400
H1677       H  0.80371622  0.00125405  0.41294609     0.33400
H1678       H  0.81666490  0.97211844  0.41008511     0.37900
H1679       H  0.89102971  0.01204117  0.32771272     0.33400
H1680       H  0.87740511  0.04094122  0.33021628     0.30100
H1681       H  0.80980173  0.09047739  0.36775836     0.33400
H1682       H  0.81771805  0.06298976  0.35464229     0.30100
H1683       H  0.92995218  0.10752137  0.39010304     0.37900
H1684       H  0.93729714  0.07893642  0.37869328     0.33400
C1685       C  0.00055854  0.16642335  0.61592786    -0.20300
C1686       C  0.02349505  0.17952426  0.62142751     0.35900
C1687       C  0.04716601  0.16719732  0.61823963    -0.26300
C1688       C  0.04856213  0.14209463  0.60957887     0.02300
C1689       C  0.02573052  0.12953639  0.60294066     0.27100
C1690       C  0.00199397  0.14168019  0.60646121    -0.25400
N1691       N  0.02268691  0.20479778  0.63129665    -0.82800
H1692       H  0.06458716  0.17680705  0.62358785     0.12900
C1693       C  0.07374139  0.12853598  0.60964172     0.02300
N1694       N  0.02675442  0.10438457  0.59287755    -0.81400
H1695       H  0.98447530  0.13168209  0.60200429     0.17800
C1696       C  0.07593002  0.10517058  0.62159365    -0.26200
C1697       C  0.09971874  0.09314412  0.62444949     0.35800
C1698       C  0.12215036  0.10470718  0.61548966    -0.20300
C1699       C  0.11980414  0.12748131  0.60254922    -0.25500
C1700       C  0.09587958  0.13945334  0.59949056     0.27200
H1701       H  0.05914103  0.09654852  0.62948477     0.12900
N1702       N  0.10093885  0.06925339  0.63667785    -0.82800
H1703       H  0.13680354  0.13649341  0.59543428     0.17800
N1704       N  0.09402397  0.16284774  0.58640593    -0.81400
H1705       H  0.08925292  0.05604971  0.62807593     0.33400
H1706       H  0.09346977  0.07200195  0.65331149     0.37900
H1707       H  0.11200680  0.16845533  0.58020352     0.33400
H1708       H  0.08269687  0.15909923  0.57187055     0.30100
H1709       H  0.00834881  0.09778176  0.58897606     0.33400
H1710       H  0.03655417  0.10594882  0.57711590     0.30100
H1711       H  0.01406863  0.20328159  0.64761958     0.37900
H1712       H  0.04118304  0.21183532  0.63408267     0.33400
C1713       C  0.82951902  0.99189558  0.61665409    -0.20300
C1714       C  0.85362583  0.99526245  0.60595053     0.35900
C1715       C  0.86426595  0.02002260  0.60422369    -0.26300
C1716       C  0.85132742  0.04146079  0.61297587     0.02300
C1717       C  0.82687435  0.03821042  0.62300159     0.27100
C1718       C  0.81608152  0.01350761  0.62444560    -0.25400
N1719       N  0.86726903  0.97352404  0.59704091    -0.82800
H1720       H  0.88296261  0.02261830  0.59639768     0.12900
C1721       C  0.86428979  0.06691770  0.61298064     0.02300
N1722       N  0.81354740  0.05986834  0.63246926    -0.81400
H1723       H  0.79767189  0.01096408  0.63283369     0.17800
C1724       C  0.85355114  0.08754309  0.60079856    -0.26200
C1725       C  0.86420714  0.11238394  0.60210076     0.35800
C1726       C  0.88642766  0.11658415  0.61567021    -0.20300
C1727       C  0.89764658  0.09550892  0.62701217    -0.25500
C1728       C  0.88670253  0.07090536  0.62603706     0.27200
H1729       H  0.83632867  0.08434444  0.59076104     0.12900
N1730       N  0.85197284  0.13331529  0.59032407    -0.82800
H1731       H  0.91463775  0.09836531  0.63743952     0.17800
N1732       N  0.89781441  0.05008351  0.63887992    -0.81400
H1733       H  0.83656456  0.12671570  0.58042541     0.33400
H1734       H  0.84418455  0.14530307  0.60298592     0.37900
H1735       H  0.91431216  0.05613572  0.64754817     0.33400
H1736       H  0.88468200  0.04456602  0.65166356     0.30100
H1737       H  0.79581814  0.05423959  0.63923508     0.33400
H1738       H  0.82429385  0.06678039  0.64641271     0.30100
H1739       H  0.85637321  0.96577310  0.58355997     0.37900
H1740       H  0.88472003  0.97925662  0.58977178     0.33400
C1741       C  0.91509091  0.21090152  0.55378939    -0.20300
C1742       C  0.89465901  0.22157076  0.54106794     0.35900
C1743       C  0.89478097  0.21981293  0.51676677    -0.26300
C1744       C  0.91478506  0.20750271  0.50503534     0.02300
C1745       C  0.93515109  0.19681095  0.51773318     0.27100
C1746       C  0.93526328  0.19891867  0.54199132    -0.25400
N1747       N  0.87406316  0.23435305  0.55282219    -0.82800
H1748       H  0.87927243  0.22814041  0.50687033     0.12900
C1749       C  0.91408879  0.20588207  0.47941131     0.02300
N1750       N  0.95533377  0.18343816  0.50594562    -0.81400
H1751       H  0.95077794  0.19047172  0.55180130     0.17800
C1752       C  0.93346804  0.21770464  0.46637266    -0.26200
C1753       C  0.93313455  0.21722813  0.44200080     0.35800
C1754       C  0.91304789  0.20419289  0.43040777    -0.20300
C1755       C  0.89380517  0.19215591  0.44370820    -0.25500
C1756       C  0.89412756  0.19287604  0.46802427     0.27200
H1757       H  0.94870385  0.22775742  0.47531364     0.12900
N1758       N  0.95322077  0.22979181  0.42919580    -0.82800
H1759       H  0.87828285  0.18216744  0.43513943     0.17800
N1760       N  0.87434506  0.18034121  0.48124665    -0.81400
H1761       H  0.96740344  0.23659526  0.44039445     0.33400
H1762       H  0.94529143  0.24600585  0.42136317     0.37900
H1763       H  0.86095511  0.17173594  0.47026194     0.33400
H1764       H  0.88287803  0.16555282  0.49070491     0.30100
H1765       H  0.96883637  0.17666921  0.51781034     0.33400
H1766       H  0.94724341  0.16730378  0.49807309     0.30100
H1767       H  0.88171869  0.25051312  0.56100210     0.37900
H1768       H  0.86055202  0.24102574  0.54092081     0.33400
C1769       C  0.03714922  0.22303349  0.79280939    -0.20300
C1770       C  0.04399366  0.21114534  0.77174295     0.35900
C1771       C  0.03148294  0.21814379  0.75121561    -0.26300
C1772       C  0.01213091  0.23663448  0.75126347     0.02300
C1773       C  0.00611901  0.24951120  0.77205459     0.27100
C1774       C  0.01894630  0.24276866  0.79268421    -0.25400
N1775       N  0.06329335  0.19158276  0.77138535    -0.82800
H1776       H  0.03592258  0.20816870  0.73525164     0.12900
C1777       C  0.99595746  0.23884335  0.73024626     0.02300
N1778       N  0.98644234  0.26866845  0.77221177    -0.81400
H1779       H  0.01378318  0.25193147  0.80886117     0.17800
C1780       C  0.97093168  0.22922928  0.73138542    -0.26200
C1781       C  0.95693008  0.22447813  0.71112407     0.35800
C1782       C  0.96799835  0.22972369  0.68934820    -0.20300
C1783       C  0.99221455  0.24131415  0.68816523    -0.25500
C1784       C  0.00642374  0.24583611  0.70853109     0.27200
H1785       H  0.96296404  0.22377422  0.74805012     0.12900
N1786       N  0.93177627  0.21343414  0.71241647    -0.82800
H1787       H  0.00066213  0.24527174  0.67135884     0.17800
N1788       N  0.03183812  0.25634242  0.70727352    -0.81400
H1789       H  0.92634371  0.21047494  0.72967472     0.33400
H1790       H  0.91920809  0.22701055  0.70557973     0.37900
H1791       H  0.03682477  0.26023105  0.69005415     0.33400
H1792       H  0.03164567  0.27393479  0.71591243     0.30100
H1793       H  0.98417235  0.27617416  0.78887854     0.33400
H1794       H  0.99262058  0.28377949  0.76163816     0.30100
H1795       H  0.08064023  0.20024704  0.77592126     0.37900
H1796       H  0.06569763  0.18437435  0.75462722     0.33400
C1797       C  0.81942152  0.12895940  0.79545725    -0.20300
C1798       C  0.84481995  0.13686996  0.79156683     0.35900
C1799       C  0.85101401  0.14928117  0.77074143    -0.26300
C1800       C  0.83225233  0.15397251  0.75388511     0.02300
C1801       C  0.80661297  0.14687603  0.75821241     0.27100
C1802       C  0.80045048  0.13416454  0.77900805    -0.25400
N1803       N  0.86442617  0.13085214  0.80817425    -0.82800
H1804       H  0.87076297  0.15437343  0.76719231     0.12900
C1805       C  0.84060808  0.16399313  0.73107545     0.02300
N1806       N  0.78716967  0.15214655  0.74129122    -0.81400
H1807       H  0.78101627  0.12771978  0.78216334     0.17800
C1808       C  0.83720667  0.14869243  0.71131605    -0.26200
C1809       C  0.84946082  0.15489656  0.69034375     0.35800
C1810       C  0.86550533  0.17663827  0.68940042    -0.20300
C1811       C  0.86735037  0.19290121  0.70857633    -0.25500
C1812       C  0.85496834  0.18684216  0.72946233     0.27200
H1813       H  0.82621405  0.13109865  0.71264777     0.12900
N1814       N  0.84717267  0.13828814  0.67057705    -0.82800
H1815       H  0.87887820  0.21007346  0.70736466     0.17800
N1816       N  0.85757471  0.20326567  0.74929885    -0.81400
H1817       H  0.83551934  0.12252731  0.67449583     0.33400
H1818       H  0.83778044  0.14849193  0.65752193     0.37900
H1819       H  0.86901547  0.21915818  0.74529401     0.33400
H1820       H  0.83939285  0.21029171  0.75330714     0.30100
H1821       H  0.76935033  0.14559546  0.74712543     0.33400
H1822       H  0.78576719  0.17205522  0.73969240     0.30100
H1823       H  0.86039574  0.14096133  0.82336867     0.37900
H1824       H  0.88227816  0.13733692  0.80236494     0.33400
C1825       C  0.27933403  0.11561731  0.63360672    -0.20300
C1826       C  0.27963310  0.13833025  0.64709338     0.35900
C1827       C  0.30133905  0.15431778  0.64677581    -0.26300
C1828       C  0.32308155  0.14806205  0.63378685     0.02300
C1829       C  0.32388617  0.12434734  0.62212718     0.27100
C1830       C  0.30201594  0.10826941  0.62221302    -0.25400
N1831       N  0.25764482  0.14553447  0.66059636    -0.82800
H1832       H  0.30093658  0.17241578  0.65595671     0.12900
C1833       C  0.34264334  0.16849805  0.62989819     0.02300
N1834       N  0.34653307  0.11711941  0.60963299    -0.81400
H1835       H  0.30224823  0.09068031  0.61227914     0.17800
C1836       C  0.36542893  0.16925193  0.64277509    -0.26200
C1837       C  0.38190783  0.19088017  0.64185010     0.35800
C1838       C  0.37532462  0.21214511  0.62773109    -0.20300
C1839       C  0.35321225  0.21034382  0.61386383    -0.25500
C1840       C  0.33695256  0.18889565  0.61479569     0.27200
H1841       H  0.36978869  0.15343523  0.65428997     0.12900
N1842       N  0.40472891  0.19151014  0.65569995    -0.82800
H1843       H  0.34809405  0.22611417  0.60256086     0.17800
N1844       N  0.31404323  0.18807041  0.60102031    -0.81400
H1845       H  0.40715746  0.17409202  0.66440474     0.33400
H1846       H  0.40217937  0.20543816  0.66849280     0.37900
H1847       H  0.31231623  0.20471295  0.59102507     0.33400
H1848       H  0.31583780  0.17284548  0.58938245     0.30100
H1849       H  0.34414319  0.09903548  0.60215477     0.33400
H1850       H  0.34896804  0.13010220  0.59596784     0.30100
H1851       H  0.25508464  0.13160701  0.67346724     0.37900
H1852       H  0.26086609  0.16288497  0.66916259     0.33400
C1853       C  0.38615205  0.21313878  0.35916068    -0.20300
C1854       C  0.37041417  0.20996923  0.33948590     0.35900
C1855       C  0.35240645  0.18992620  0.33899162    -0.26300
C1856       C  0.34973045  0.17301195  0.35775870     0.02300
C1857       C  0.36643682  0.17520002  0.37686156     0.27100
C1858       C  0.38483497  0.19506493  0.37721031    -0.25400
N1859       N  0.37220411  0.22771489  0.32043361    -0.82800
H1860       H  0.33950333  0.18819176  0.32438278     0.12900
C1861       C  0.32691255  0.15593125  0.35848528     0.02300
N1862       N  0.36376599  0.15809740  0.39628876    -0.81400
H1863       H  0.39679514  0.19760364  0.39236928     0.17800
C1864       C  0.32906940  0.12950282  0.35438947    -0.26200
C1865       C  0.30720215  0.11339043  0.35431113     0.35800
C1866       C  0.28270300  0.12410696  0.35818201    -0.20300
C1867       C  0.28095353  0.15067674  0.36231479    -0.25500
C1868       C  0.30265476  0.16652757  0.36269771     0.27200
H1869       H  0.34783904  0.12148254  0.35122155     0.12900
N1870       N  0.30990804  0.08634491  0.35048417    -0.82800
H1871       H  0.26244322  0.15933538  0.36532531     0.17800
N1872       N  0.30018884  0.19350197  0.36729515    -0.81400
H1873       H  0.32907999  0.08171985  0.34749779     0.33400
H1874       H  0.30460558  0.07698947  0.36581628     0.37900
H1875       H  0.28100693  0.19840227  0.36982092     0.33400
H1876       H  0.30959469  0.19731184  0.38290641     0.30100
H1877       H  0.37749821  0.16224963  0.40891160     0.33400
H1878       H  0.34592784  0.16152155  0.40388711     0.30100
H1879       H  0.35910818  0.22294425  0.30744221     0.37900
H1880       H  0.39043381  0.22581955  0.31317606     0.33400
C1881       C  0.41608469  0.28729492  0.56132124    -0.20300
C1882       C  0.43811727  0.27749305  0.55019921     0.35900
C1883       C  0.43899791  0.27658615  0.52587828    -0.26300
C1884       C  0.41901358  0.28646393  0.51235368     0.02300
C1885       C  0.39794896  0.29808373  0.52343586     0.27100
C1886       C  0.39655312  0.29807671  0.54775673    -0.25400
N1887       N  0.45952286  0.26851385  0.56354408    -0.82800
H1888       H  0.45525343  0.26777954  0.51742045     0.12900
C1889       C  0.41999657  0.28368295  0.48669094     0.02300
N1890       N  0.37798109  0.30969099  0.50993123    -0.81400
H1891       H  0.37984991  0.30613717  0.55611483     0.17800
C1892       C  0.39912650  0.27249129  0.47511093    -0.26200
C1893       C  0.39930182  0.26917970  0.45093730     0.35800
C1894       C  0.42099652  0.27690025  0.43809797    -0.20300
C1895       C  0.44209110  0.28756521  0.44972652    -0.25500
C1896       C  0.44171155  0.29135789  0.47380774     0.27200
H1897       H  0.38270201  0.26603881  0.48504414     0.12900
N1898       N  0.37771677  0.25770334  0.43948156    -0.82800
H1899       H  0.45868727  0.29373596  0.43986643     0.17800
N1900       N  0.46309563  0.30336545  0.48514748    -0.81400
H1901       H  0.36327297  0.25329802  0.45142165     0.33400
H1902       H  0.38377404  0.24030318  0.43242557     0.37900
H1903       H  0.47756340  0.30770688  0.47321004     0.33400
H1904       H  0.45677178  0.32081551  0.49189115     0.30100
H1905       H  0.36380646  0.31726946  0.52070694     0.33400
H1906       H  0.38605152  0.32514630  0.50092026     0.30100
H1907       H  0.46712452  0.28427689  0.57237149     0.37900
H1908       H  0.47404837  0.26180453  0.55267523     0.33400
C1909       C  0.22510104  0.62302040  0.63227256    -0.20300
C1910       C  0.20012146  0.61309652  0.62962648     0.35900
C1911       C  0.17901776  0.62996711  0.63044893    -0.26300
C1912       C  0.18245915  0.65643503  0.63402326     0.02300
C1913       C  0.20744214  0.66615282  0.63713680     0.27100
C1914       C  0.22832325  0.64937978  0.63641493    -0.25400
N1915       N  0.19631547  0.58630529  0.62506197    -0.82800
H1916       H  0.15982075  0.62252168  0.62810713     0.12900
C1917       C  0.16012327  0.67418180  0.63390955     0.02300
N1918       N  0.21159106  0.69318259  0.64038838    -0.81400
H1919       H  0.24745520  0.65709730  0.63859228     0.17800
C1920       C  0.15593690  0.69007108  0.65316887    -0.26200
C1921       C  0.13775298  0.70984498  0.65245439     0.35800
C1922       C  0.12306224  0.71351036  0.63224578    -0.20300
C1923       C  0.12587987  0.69654476  0.61358474    -0.25500
C1924       C  0.14458273  0.67713535  0.61405079     0.27200
H1925       H  0.16765250  0.68764195  0.66849609     0.12900
N1926       N  0.13458785  0.72672496  0.67191582    -0.82800
H1927       H  0.11475502  0.69961297  0.59798727     0.17800
N1928       N  0.14873131  0.66132012  0.59402951    -0.81400
H1929       H  0.14695606  0.72162596  0.68537424     0.33400
H1930       H  0.11596939  0.72421194  0.67820646     0.37900
H1931       H  0.13575015  0.66593678  0.58090565     0.33400
H1932       H  0.16696154  0.66557315  0.58755289     0.30100
H1933       H  0.23105618  0.69718597  0.64257581     0.33400
H1934       H  0.20594857  0.70250924  0.62517826     0.30100
H1935       H  0.20167851  0.57622528  0.63995130     0.37900
H1936       H  0.17689734  0.58237080  0.62248479     0.33400
C1937       C  0.38118859  0.37377138  0.62804460    -0.20300
C1938       C  0.39789885  0.39518497  0.62883142     0.35900
C1939       C  0.38781875  0.42013400  0.62676721    -0.26300
C1940       C  0.36154627  0.42419920  0.62339079     0.02300
C1941       C  0.34510189  0.40292090  0.62115952     0.27100
C1942       C  0.35506528  0.37799955  0.62339558    -0.25400
N1943       N  0.42493810  0.39164072  0.63196453    -0.82800
H1944       H  0.40041470  0.43658365  0.62830580     0.12900
C1945       C  0.35114185  0.45068698  0.62490254     0.02300
N1946       N  0.31818997  0.40673697  0.61742173    -0.81400
H1947       H  0.34205750  0.36182716  0.62245064     0.17800
C1948       C  0.34151640  0.46316206  0.60513518    -0.26200
C1949       C  0.33136059  0.48821380  0.60653703     0.35800
C1950       C  0.33067784  0.50083379  0.62819522    -0.20300
C1951       C  0.34027571  0.48811408  0.64786095    -0.25500
C1952       C  0.35024719  0.46321753  0.64647957     0.27200
H1953       H  0.34212196  0.45338493  0.58859455     0.12900
N1954       N  0.32216717  0.50093980  0.58607542    -0.82800
H1955       H  0.33953294  0.49747886  0.66459974     0.17800
N1956       N  0.35922200  0.45040142  0.66700357    -0.81400
H1957       H  0.32402465  0.48905081  0.57160786     0.33400
H1958       H  0.33396603  0.51684191  0.58308681     0.37900
H1959       H  0.35736985  0.46224627  0.68150289     0.33400
H1960       H  0.34730425  0.43457278  0.66991783     0.30100
H1961       H  0.30869991  0.38913482  0.61601846     0.33400
H1962       H  0.31077090  0.41575884  0.63212532     0.30100
H1963       H  0.43182967  0.38197526  0.61738408     0.37900
H1964       H  0.43441976  0.40931356  0.63239302     0.33400
C1965       C  0.13302465  0.70890063  0.35787953    -0.20300
C1966       C  0.14670617  0.70029199  0.37751132     0.35900
C1967       C  0.16305979  0.67908420  0.37557711    -0.26300
C1968       C  0.16609257  0.66624245  0.35445926     0.02300
C1969       C  0.15124509  0.67371968  0.33518071     0.27100
C1970       C  0.13454316  0.69486239  0.33715933    -0.25400
N1971       N  0.14452902  0.71369588  0.39918596    -0.82800
H1972       H  0.17449334  0.67327263  0.39032955     0.12900
C1973       C  0.18773373  0.64796879  0.35222660     0.02300
N1974       N  0.15383846  0.66038277  0.31353473    -0.81400
H1975       H  0.12402794  0.70141425  0.32210813     0.17800
C1976       C  0.18430689  0.62170613  0.35667457    -0.26200
C1977       C  0.20543231  0.60481091  0.35742975     0.35800
C1978       C  0.23050842  0.61458461  0.35403948    -0.20300
C1979       C  0.23344822  0.64078549  0.34857333    -0.25500
C1980       C  0.21247644  0.65746509  0.34774216     0.27200
H1981       H  0.16518921  0.61451822  0.36007419     0.12900
N1982       N  0.20146475  0.57800689  0.36199065    -0.82800
H1983       H  0.25238678  0.64868223  0.34569103     0.17800
N1984       N  0.21630365  0.68435959  0.34333629    -0.81400
H1985       H  0.18201103  0.57409008  0.36443582     0.33400
H1986       H  0.20704057  0.56797751  0.34715286     0.37900
H1987       H  0.23572673  0.68846885  0.34094703     0.33400
H1988       H  0.20722441  0.68879426  0.32770899     0.30100
H1989       H  0.14153372  0.66816218  0.30111925     0.33400
H1990       H  0.17244471  0.66343394  0.30742645     0.30100
H1991       H  0.12557627  0.71191829  0.40482133     0.37900
H1992       H  0.15593267  0.70509435  0.41186356     0.33400
C1993       C  0.33360576  0.49014681  0.38310168    -0.20300
C1994       C  0.35944439  0.48814804  0.39023485     0.35900
C1995       C  0.37070483  0.46384080  0.39233257    -0.26300
C1996       C  0.35666739  0.44146162  0.38789756     0.02300
C1997       C  0.33021413  0.44327899  0.38330064     0.27100
C1998       C  0.31890402  0.46764905  0.38102107    -0.25400
N1999       N  0.37442317  0.51081111  0.39454894    -0.82800
H2000       H  0.39086857  0.46232016  0.39645390     0.12900
C2001       C  0.37060398  0.41680122  0.38532200     0.02300
N2002       N  0.31524376  0.42044631  0.37983150    -0.81400
H2003       H  0.29899550  0.46899635  0.37597532     0.17800
C2004       C  0.36575307  0.39631278  0.40048667    -0.26200
C2005       C  0.37808736  0.37250397  0.39765394     0.35800
C2006       C  0.39537908  0.36901500  0.37891309    -0.20300
C2007       C  0.40072779  0.38998683  0.36430197    -0.25500
C2008       C  0.38845447  0.41366555  0.36719763     0.27200
H2009       H  0.35221308  0.39891986  0.41452301     0.12900
N2010       N  0.37279142  0.35190191  0.41356925    -0.82800
H2011       H  0.41387240  0.38770568  0.34992184     0.17800
N2012       N  0.39352256  0.43442149  0.35136647    -0.81400
H2013       H  0.35927690  0.35748079  0.42593643     0.33400
H2014       H  0.38967874  0.34808841  0.42262386     0.37900
H2015       H  0.40721746  0.42911919  0.33906277     0.33400
H2016       H  0.37664271  0.43808891  0.34225212     0.30100
H2017       H  0.29609603  0.42508259  0.37677004     0.33400
H2018       H  0.32197139  0.41150220  0.36482126     0.30100
H2019       H  0.36624146  0.52020511  0.40871803     0.37900
H2020       H  0.39307657  0.50600483  0.39938098     0.33400
C2021       C  0.29011597  0.57874692  0.43473636    -0.20300
C2022       C  0.29573741  0.55671474  0.44819229     0.35900
C2023       C  0.29543168  0.55840321  0.47243757    -0.26300
C2024       C  0.29047542  0.58166839  0.48348590     0.02300
C2025       C  0.28576283  0.60385862  0.47026240     0.27100
C2026       C  0.28559914  0.60219213  0.44594660    -0.25400
N2027       N  0.30232899  0.53285889  0.43727485    -0.82800
H2028       H  0.29953286  0.54159528  0.48284790     0.12900
C2029       C  0.29084074  0.58243816  0.50903055     0.02300
N2030       N  0.28111557  0.62789173  0.48162024    -0.81400
H2031       H  0.28166226  0.61918167  0.43574280     0.17800
C2032       C  0.31186570  0.59344643  0.52021210    -0.26200
C2033       C  0.31341394  0.59376958  0.54449016     0.35800
C2034       C  0.29303995  0.58331680  0.55784518    -0.20300
C2035       C  0.27218816  0.57189906  0.54643404    -0.25500
C2036       C  0.27090666  0.57137635  0.52212047     0.27200
H2037       H  0.32729653  0.60146946  0.50988761     0.12900
N2038       N  0.33569181  0.60447272  0.55551136    -0.82800
H2039       H  0.25657211  0.56382892  0.55647507     0.17800
N2040       N  0.24940900  0.55982304  0.51060101    -0.81400
H2041       H  0.34855841  0.61166911  0.54319238     0.33400
H2042       H  0.34508528  0.58954912  0.56408335     0.37900
H2043       H  0.23641893  0.55241709  0.52270862     0.33400
H2044       H  0.23984515  0.57430515  0.50158124     0.30100
H2045       H  0.27815593  0.64241395  0.46940467     0.33400
H2046       H  0.26408705  0.62604371  0.49102672     0.30100
H2047       H  0.31965802  0.53563473  0.42850922     0.37900
H2048       H  0.30561772  0.51860323  0.44967492     0.33400
C2049       C  0.63109645  0.76951785  0.63583439    -0.20300
C2050       C  0.65664441  0.76804408  0.64353148     0.35900
C2051       C  0.67180073  0.79014385  0.64439764    -0.26300
C2052       C  0.66206987  0.81411835  0.63795417     0.02300
C2053       C  0.63620335  0.81596493  0.63100362     0.27100
C2054       C  0.62087305  0.79359081  0.63013890    -0.25400
N2055       N  0.66735861  0.74403062  0.65057346    -0.82800
H2056       H  0.69163287  0.78839809  0.64962747     0.12900
C2057       C  0.68012707  0.83631231  0.63736108     0.02300
N2058       N  0.62576643  0.84040064  0.62459317    -0.81400
H2059       H  0.60125003  0.79479679  0.62421826     0.17800
C2060       C  0.68463932  0.84923682  0.61632526    -0.26200
C2061       C  0.70560785  0.86609923  0.61379293     0.35800
C2062       C  0.72236320  0.86989322  0.63263678    -0.20300
C2063       C  0.71692133  0.85829235  0.65402525    -0.25500
C2064       C  0.69569602  0.84193779  0.65670649     0.27200
H2065       H  0.67279846  0.84489722  0.60143236     0.12900
N2066       N  0.71076907  0.87819836  0.59184520    -0.82800
H2067       H  0.72969963  0.86150836  0.66852375     0.17800
N2068       N  0.69032899  0.83026474  0.67879537    -0.81400
H2069       H  0.69661847  0.87343510  0.57979049     0.33400
H2070       H  0.72795290  0.87077734  0.58547369     0.37900
H2071       H  0.70363657  0.83623910  0.69119443     0.33400
H2072       H  0.67247884  0.83691235  0.68429531     0.30100
H2073       H  0.60657136  0.83846285  0.61980090     0.33400
H2074       H  0.62611445  0.85204068  0.63931901     0.30100
H2075       H  0.68324048  0.74031432  0.64007854     0.37900
H2076       H  0.67379017  0.74596401  0.66763346     0.33400
C2077       C  0.38366339  0.61253639  0.61877005    -0.20300
C2078       C  0.38809877  0.63524787  0.60584376     0.35900
C2079       C  0.41306189  0.64496178  0.60358230    -0.26300
C2080       C  0.43372791  0.63235917  0.61386263     0.02300
C2081       C  0.42974954  0.60868153  0.62512025     0.27100
C2082       C  0.40477074  0.59892742  0.62739730    -0.25400
N2083       N  0.36731129  0.64891920  0.59547399    -0.82800
H2084       H  0.41613856  0.66309407  0.59478482     0.12900
C2085       C  0.45860008  0.64577003  0.61593991     0.02300
N2086       N  0.45106150  0.59527252  0.63508162    -0.81400
H2087       H  0.40172560  0.58132900  0.63702939     0.17800
C2088       C  0.46541274  0.65518018  0.63777162    -0.26200
C2089       C  0.48920239  0.66685357  0.64141047     0.35800
C2090       C  0.50664921  0.66911869  0.62279843    -0.20300
C2091       C  0.49946284  0.66076961  0.60060862    -0.25500
C2092       C  0.47549145  0.64885462  0.59703450     0.27200
H2093       H  0.45213523  0.65309486  0.65212056     0.12900
N2094       N  0.49586873  0.67631314  0.66402845    -0.82800
H2095       H  0.51293497  0.66252131  0.58638940     0.17800
N2096       N  0.46847509  0.63934369  0.57456224    -0.81400
H2097       H  0.48102307  0.67300832  0.67584870     0.33400
H2098       H  0.49794841  0.69618592  0.66268012     0.37900
H2099       H  0.48305497  0.64303131  0.56256287     0.33400
H2100       H  0.46679579  0.61941471  0.57583680     0.30100
H2101       H  0.44494556  0.57826449  0.64298627     0.33400
H2102       H  0.46321633  0.59002015  0.62149669     0.30100
H2103       H  0.36713691  0.66747886  0.60226848     0.37900
H2104       H  0.37078131  0.65025617  0.57765387     0.33400
C2105       C  0.73020398  0.86078969  0.35856316    -0.20300
C2106       C  0.71071955  0.86627262  0.34228788     0.35900
C2107       C  0.68862644  0.85059047  0.34154641    -0.26300
C2108       C  0.68587630  0.82946454  0.35646854     0.02300
C2109       C  0.70516383  0.82408601  0.37274566     0.27100
C2110       C  0.72684787  0.83992355  0.37380909    -0.25400
N2111       N  0.71373236  0.88703813  0.32609183    -0.82800
H2112       H  0.67390090  0.85428172  0.32877936     0.12900
C2113       C  0.66431012  0.81123426  0.35348319     0.02300
N2114       N  0.70327580  0.80173129  0.38732363    -0.81400
H2115       H  0.74156712  0.83548768  0.38638533     0.17800
C2116       C  0.66718466  0.79118386  0.33759860    -0.26200
C2117       C  0.64972756  0.77065031  0.33705362     0.35800
C2118       C  0.62906845  0.77010077  0.35292368    -0.20300
C2119       C  0.62507656  0.79122643  0.36752966    -0.25500
C2120       C  0.64262914  0.81178291  0.36806949     0.27200
H2121       H  0.68376263  0.79103202  0.32628366     0.12900
N2122       N  0.65330427  0.74998470  0.32091896    -0.82800
H2123       H  0.60913080  0.79096824  0.37955870     0.17800
N2124       N  0.63875493  0.83294631  0.38359186    -0.81400
H2125       H  0.66945313  0.75324817  0.31058551     0.33400
H2126       H  0.63754421  0.74980079  0.30977260     0.37900
H2127       H  0.62174077  0.83052444  0.39291859     0.33400
H2128       H  0.65352795  0.83293652  0.39576181     0.30100
H2129       H  0.71956553  0.79991759  0.39769059     0.33400
H2130       H  0.68788688  0.80428690  0.39864259     0.30100
H2131       H  0.72901252  0.88249006  0.31513895     0.37900
H2132       H  0.69757088  0.88859109  0.31552606     0.33400
C2133       C  0.50427132  0.66781779  0.37944590    -0.20300
C2134       C  0.48127613  0.68094513  0.37448061     0.35900
C2135       C  0.45776220  0.66815099  0.37740390    -0.26300
C2136       C  0.45669816  0.64289082  0.38580318     0.02300
C2137       C  0.47950022  0.63071234  0.39271853     0.27100
C2138       C  0.50303327  0.64317478  0.38922749    -0.25400
N2139       N  0.48183918  0.70649245  0.36508299    -0.82800
H2140       H  0.44026194  0.67750160  0.37204249     0.12900
C2141       C  0.43209263  0.62852064  0.38481225     0.02300
N2142       N  0.47867010  0.60540362  0.40260288    -0.81400
H2143       H  0.52059205  0.63323968  0.39347457     0.17800
C2144       C  0.43127855  0.60529461  0.37261495    -0.26200
C2145       C  0.40821655  0.59195864  0.36931785     0.35800
C2146       C  0.38513646  0.60249748  0.37781116    -0.20300
C2147       C  0.38612270  0.62529265  0.39080153    -0.25500
C2148       C  0.40935480  0.63835105  0.39445048     0.27200
H2149       H  0.44870915  0.59783047  0.36505043     0.12900
N2150       N  0.40819399  0.56804270  0.35697251    -0.82800
H2151       H  0.36859239  0.63349527  0.39748113     0.17800
N2152       N  0.40989387  0.66176497  0.40753223    -0.81400
H2153       H  0.42667868  0.56327793  0.35157183     0.33400
H2154       H  0.40244094  0.55374908  0.36862073     0.37900
H2155       H  0.39153064  0.66651425  0.41327391     0.33400
H2156       H  0.42092111  0.65850592  0.42234836     0.30100
H2157       H  0.49710605  0.59904388  0.40655739     0.33400
H2158       H  0.46873820  0.60657846  0.41831105     0.30100
H2159       H  0.48855001  0.71865816  0.37812380     0.37900
H2160       H  0.46335039  0.71270421  0.36113640     0.33400
C2161       C  0.59063075  0.71352385  0.43409463    -0.20300
C2162       C  0.56792599  0.71519731  0.44754730     0.35900
C2163       C  0.56955449  0.71493551  0.47189261    -0.26300
C2164       C  0.59316417  0.71270489  0.48319915     0.02300
C2165       C  0.61578568  0.71137343  0.46993292     0.27100
C2166       C  0.61429282  0.71176671  0.44560358    -0.25400
N2167       N  0.54323585  0.71659310  0.43663766    -0.82800
H2168       H  0.55220087  0.71572496  0.48217219     0.12900
C2169       C  0.59381886  0.71094700  0.50894004     0.02300
N2170       N  0.64020366  0.70962454  0.48126104    -0.81400
H2171       H  0.63180582  0.71056774  0.43560090     0.17800
C2172       C  0.60425725  0.68909684  0.51945668    -0.26200
C2173       C  0.60486877  0.68638624  0.54372759     0.35800
C2174       C  0.59511193  0.70624474  0.55789179    -0.20300
C2175       C  0.58439371  0.72797852  0.54721920    -0.25500
C2176       C  0.58368246  0.73054437  0.52295647     0.27200
H2177       H  0.61158975  0.67386460  0.50860016     0.12900
N2178       N  0.61499922  0.66337755  0.55389940    -0.82800
H2179       H  0.57681953  0.74327934  0.55784457     0.17800
N2180       N  0.57293442  0.75308956  0.51247975    -0.81400
H2181       H  0.62176875  0.65098689  0.54107555     0.33400
H2182       H  0.59987184  0.65383690  0.56214288     0.37900
H2183       H  0.56614754  0.76563290  0.52517239     0.33400
H2184       H  0.58769212  0.76268919  0.50376451     0.30100
H2185       H  0.65498428  0.70862579  0.46906158     0.33400
H2186       H  0.64300383  0.72658895  0.49054469     0.30100
H2187       H  0.53979203  0.69893550  0.42866429     0.37900
H2188       H  0.52878121  0.71886774  0.44901013     0.33400
C2189       C  0.78113967  0.36702808  0.63044829    -0.20300
C2190       C  0.80369134  0.37608073  0.64139464     0.35900
C2191       C  0.82561516  0.36017114  0.64215805    -0.26300
C2192       C  0.82533767  0.33565122  0.63210868     0.02300
C2193       C  0.80317950  0.32699110  0.62077166     0.27100
C2194       C  0.78159077  0.34269533  0.61990568    -0.25400
N2195       N  0.80411294  0.40082456  0.65226905    -0.82800
H2196       H  0.84274645  0.36665115  0.65095649     0.12900
C2197       C  0.84723989  0.31778464  0.63449782     0.02300
N2198       N  0.80244490  0.30173078  0.61081988    -0.81400
H2199       H  0.76473180  0.33543476  0.61118210     0.17800
C2200       C  0.84559256  0.29860263  0.65147968    -0.26200
C2201       C  0.86132411  0.27683164  0.65059597     0.35800
C2202       C  0.87923805  0.27423275  0.63235299    -0.20300
C2203       C  0.88242128  0.29451674  0.61651037    -0.25500
C2204       C  0.86628964  0.31614993  0.61720234     0.27200
H2205       H  0.83080850  0.29986463  0.66462498     0.12900
N2206       N  0.85855685  0.25690102  0.66769888    -0.82800
H2207       H  0.89625282  0.29266399  0.60260654     0.17800
N2208       N  0.86836192  0.33584969  0.59982731    -0.81400
H2209       H  0.84440536  0.26162507  0.67977409     0.33400
H2210       H  0.87577724  0.25576111  0.67684232     0.37900
H2211       H  0.88337903  0.33184487  0.58841311     0.33400
H2212       H  0.85159665  0.33554105  0.58996899     0.30100
H2213       H  0.78445086  0.29785131  0.60372375     0.33400
H2214       H  0.81548703  0.30137816  0.59706743     0.30100
H2215       H  0.80261063  0.41459689  0.63915336     0.37900
H2216       H  0.82174357  0.40402213  0.66032276     0.33400
C2217       C  0.67055185  0.48483270  0.62753547    -0.20300
C2218       C  0.67127063  0.49760153  0.60591188     0.35900
C2219       C  0.65907655  0.52157094  0.60353883    -0.26300
C2220       C  0.64633586  0.53306269  0.62232245     0.02300
C2221       C  0.64565733  0.52031421  0.64386767     0.27100
C2222       C  0.65748000  0.49639559  0.64614651    -0.25400
N2223       N  0.68425929  0.48632300  0.58649768    -0.82800
H2224       H  0.65958757  0.53143897  0.58699648     0.12900
C2225       C  0.63514057  0.55914288  0.61992027     0.02300
N2226       N  0.63350334  0.53201912  0.66356724    -0.81400
H2227       H  0.65697879  0.48703788  0.66292837     0.17800
C2228       C  0.60939812  0.56326502  0.62587164    -0.26200
C2229       C  0.59931996  0.58815718  0.62727942     0.35800
C2230       C  0.61505296  0.60951111  0.62209647    -0.20300
C2231       C  0.64034056  0.60510293  0.61464536    -0.25500
C2232       C  0.65064945  0.58029339  0.61391451     0.27200
H2233       H  0.59731127  0.54707751  0.63038521     0.12900
N2234       N  0.57340941  0.59154986  0.63476217    -0.82800
H2235       H  0.65270550  0.62119453  0.61054743     0.17800
N2236       N  0.67717377  0.57663219  0.60817742    -0.81400
H2237       H  0.57145826  0.58331200  0.65121789     0.33400
H2238       H  0.56146994  0.58157316  0.62336545     0.37900
H2239       H  0.68594284  0.59412372  0.60413048     0.33400
H2240       H  0.68635239  0.56963834  0.62298145     0.30100
H2241       H  0.63451484  0.52006454  0.67810831     0.33400
H2242       H  0.64382298  0.54861373  0.66763217     0.30100
H2243       H  0.67437383  0.46957977  0.58207557     0.37900
H2244       H  0.68336439  0.49841331  0.57204210     0.33400
C2245       C  0.49382332  0.32241000  0.63422804    -0.20300
C2246       C  0.50838405  0.32957639  0.65388026     0.35900
C2247       C  0.53273130  0.34048361  0.65080707    -0.26300
C2248       C  0.54279400  0.34506783  0.62863573     0.02300
C2249       C  0.52847062  0.33769414  0.60898426     0.27100
C2250       C  0.50424758  0.32610562  0.61200001    -0.25400
N2251       N  0.49887935  0.32494649  0.67695170    -0.82800
H2252       H  0.54400459  0.34553336  0.66588879     0.12900
C2253       C  0.56863293  0.35708451  0.62673876     0.02300
N2254       N  0.53841132  0.34230665  0.58610275    -0.81400
H2255       H  0.49318972  0.32051225  0.59695218     0.17800
C2256       C  0.58833650  0.34410146  0.61519721    -0.26200
C2257       C  0.61375780  0.35311547  0.61589812     0.35800
C2258       C  0.61968811  0.37540629  0.62887190    -0.20300
C2259       C  0.59961424  0.38919802  0.63913858    -0.25500
C2260       C  0.57422315  0.38033611  0.63816088     0.27200
H2261       H  0.58402093  0.32633479  0.60631340     0.12900
N2262       N  0.63353818  0.33937802  0.60388666    -0.82800
H2263       H  0.60381041  0.40649158  0.64879044     0.17800
N2264       N  0.55411224  0.39451577  0.64925606    -0.81400
H2265       H  0.62600240  0.32327556  0.59553147     0.33400
H2266       H  0.64067453  0.35143751  0.59087260     0.37900
H2267       H  0.56139137  0.41103711  0.65711520     0.33400
H2268       H  0.54152326  0.40062896  0.63632467     0.30100
H2269       H  0.52556400  0.33574133  0.57355101     0.33400
H2270       H  0.53991671  0.36214746  0.58387913     0.30100
H2271       H  0.48447602  0.33832012  0.68016545     0.37900
H2272       H  0.51310066  0.32859037  0.68925581     0.33400
C2273       C  0.78511541  0.36980128  0.35838116    -0.20300
C2274       C  0.80797327  0.37522109  0.37060668     0.35900
C2275       C  0.82898151  0.35839019  0.36865221    -0.26300
C2276       C  0.82743546  0.33605823  0.35519237     0.02300
C2277       C  0.80488443  0.33086025  0.34271032     0.27100
C2278       C  0.78424624  0.34794483  0.34409417    -0.25400
N2279       N  0.80942841  0.39691141  0.38586563    -0.82800
H2280       H  0.84612308  0.36188096  0.37872178     0.12900
C2281       C  0.84712494  0.31580278  0.35777470     0.02300
N2282       N  0.80235523  0.30728603  0.33001029    -0.81400
H2283       H  0.76689333  0.34348758  0.33464779     0.17800
C2284       C  0.84458935  0.29891610  0.37648723    -0.26200
C2285       C  0.86002504  0.27709570  0.37839132     0.35800
C2286       C  0.87822376  0.27163515  0.36082998    -0.20300
C2287       C  0.88203705  0.28956443  0.34290104    -0.25500
C2288       C  0.86658783  0.31168967  0.34120018     0.27200
H2289       H  0.82987269  0.30241911  0.38935302     0.12900
N2290       N  0.85692284  0.26018415  0.39794963    -0.82800
H2291       H  0.89623756  0.28574357  0.32966132     0.17800
N2292       N  0.87056029  0.32989483  0.32279482    -0.81400
H2293       H  0.84260613  0.26680216  0.40909081     0.33400
H2294       H  0.87400544  0.26054862  0.40736032     0.37900
H2295       H  0.88585790  0.32424266  0.31230486     0.33400
H2296       H  0.85432377  0.32984559  0.31226808     0.30100
H2297       H  0.78413713  0.30577083  0.32266316     0.33400
H2298       H  0.81530839  0.30782629  0.31621447     0.30100
H2299       H  0.79679163  0.39353547  0.39962416     0.37900
H2300       H  0.82767296  0.39836959  0.39316665     0.33400
C2301       C  0.67928756  0.49321352  0.38059915    -0.20300
C2302       C  0.65392172  0.49482142  0.38902857     0.35900
C2303       C  0.64213250  0.51891789  0.39096663    -0.26300
C2304       C  0.65505420  0.54146779  0.38455937     0.02300
C2305       C  0.68092518  0.54002267  0.37751641     0.27100
C2306       C  0.69286144  0.51592137  0.37588790    -0.25400
N2307       N  0.64002010  0.47191889  0.39505308    -0.82800
H2308       H  0.62244078  0.52009502  0.39676664     0.12900
C2309       C  0.64067792  0.56607857  0.38334314     0.02300
N2310       N  0.69459082  0.56289496  0.37097286    -0.81400
H2311       H  0.71228274  0.51478058  0.36937259     0.17800
C2312       C  0.64897429  0.58734685  0.39616329    -0.26200
C2313       C  0.63750689  0.61159310  0.39341897     0.35800
C2314       C  0.61700849  0.61459948  0.37752637    -0.20300
C2315       C  0.60779676  0.59277327  0.36585837    -0.25500
C2316       C  0.61947605  0.56871489  0.36842819     0.27200
H2317       H  0.66502736  0.58515782  0.40785862     0.12900
N2318       N  0.64713442  0.63309414  0.40632810    -0.82800
H2319       H  0.59196487  0.59461334  0.35387886     0.17800
N2320       N  0.61040191  0.54711017  0.35531365    -0.81400
H2321       H  0.66086407  0.62715870  0.41834344     0.33400
H2322       H  0.65671676  0.64512230  0.39465098     0.37900
H2323       H  0.59453242  0.55215297  0.34529943     0.33400
H2324       H  0.62486512  0.54193874  0.34370377     0.30100
H2325       H  0.71340818  0.55855533  0.36626266     0.33400
H2326       H  0.68578220  0.57037412  0.35617936     0.30100
H2327       H  0.64941263  0.46339402  0.40906517     0.37900
H2328       H  0.62156520  0.47637359  0.40074945     0.33400
C2329       C  0.62904408  0.38224435  0.37691672    -0.20300
C2330       C  0.60644906  0.39346387  0.36805831     0.35900
C2331       C  0.58279315  0.38129360  0.37190153    -0.26300
C2332       C  0.58112926  0.35845291  0.38468980     0.02300
C2333       C  0.60336161  0.34814757  0.39479103     0.27100
C2334       C  0.62707179  0.36012986  0.39081831    -0.25400
N2335       N  0.60757614  0.41680843  0.35478891    -0.82800
H2336       H  0.56564327  0.38916135  0.36416202     0.12900
C2337       C  0.55643985  0.34434634  0.38538273     0.02300
N2338       N  0.60180154  0.32517774  0.40854365    -0.81400
H2339       H  0.64420125  0.35150595  0.39788714     0.17800
C2340       C  0.55540183  0.31948936  0.37621252    -0.26200
C2341       C  0.53204339  0.30639534  0.37386858     0.35800
C2342       C  0.50914601  0.31862797  0.38064350    -0.20300
C2343       C  0.51031851  0.34316162  0.39059452    -0.25500
C2344       C  0.53376810  0.35608763  0.39317469     0.27200
H2345       H  0.57283479  0.31066524  0.36997169     0.12900
N2346       N  0.53140519  0.28155140  0.36313442    -0.82800
H2347       H  0.49276594  0.35255361  0.39579249     0.17800
N2348       N  0.53463123  0.38129100  0.40316038    -0.81400
H2349       H  0.54966944  0.27623304  0.35755050     0.33400
H2350       H  0.52612933  0.26826545  0.37587912     0.37900
H2351       H  0.51626973  0.38728654  0.40783828     0.33400
H2352       H  0.54522642  0.38010309  0.41848276     0.30100
H2353       H  0.61990633  0.31992962  0.41455908     0.33400
H2354       H  0.59074116  0.32930575  0.42317701     0.30100
H2355       H  0.61400281  0.43130906  0.36584930     0.37900
H2356       H  0.58932079  0.42218198  0.34925520     0.33400
C2357       C  0.72041365  0.40361817  0.43729771    -0.20300
C2358       C  0.70878009  0.38224412  0.44840479     0.35900
C2359       C  0.70738827  0.38143783  0.47273175    -0.26300
C2360       C  0.71648708  0.40177152  0.48626287     0.02300
C2361       C  0.72756552  0.42331711  0.47527279     0.27100
C2362       C  0.72958985  0.42391698  0.45097655    -0.25400
N2363       N  0.69791845  0.36164836  0.43508171    -0.82800
H2364       H  0.69896971  0.36488961  0.48123700     0.12900
C2365       C  0.71468575  0.40008728  0.51195160     0.02300
N2366       N  0.73650904  0.44461382  0.48884674    -0.81400
H2367       H  0.73828266  0.44045262  0.44269259     0.17800
C2368       C  0.73707966  0.40250829  0.52511552    -0.26200
C2369       C  0.73634853  0.40157619  0.54941475     0.35800
C2370       C  0.71264990  0.39803535  0.56085147    -0.20300
C2371       C  0.69032114  0.39474760  0.54771673    -0.25500
C2372       C  0.69104366  0.39601859  0.52333973     0.27200
H2373       H  0.75526343  0.40504390  0.51633184     0.12900
N2374       N  0.75964396  0.40389195  0.56251500    -0.82800
H2375       H  0.67218294  0.39198259  0.55652370     0.17800
N2376       N  0.66785010  0.39369434  0.51013342    -0.81400
H2377       H  0.77533876  0.40652036  0.55148654     0.33400
H2378       H  0.76254658  0.38651153  0.57116880     0.37900
H2379       H  0.65216645  0.39073744  0.52110887     0.33400
H2380       H  0.66481840  0.41118851  0.50171890     0.30100
H2381       H  0.74424364  0.45889408  0.47816257     0.33400
H2382       H  0.72062901  0.45264936  0.49709644     0.30100
H2383       H  0.68206779  0.36899005  0.42629239     0.37900
H2384       H  0.69090861  0.34716489  0.44595043     0.33400
C2385       C  0.22119987  0.36403503  0.86095508    -0.20300
C2386       C  0.20104170  0.37130355  0.84593387     0.35900
C2387       C  0.17927507  0.35516218  0.84376157    -0.26300
C2388       C  0.17742302  0.33209356  0.85631674     0.02300
C2389       C  0.19678274  0.32567839  0.87216317     0.27100
C2390       C  0.21827876  0.34158187  0.87431771    -0.25400
N2391       N  0.20297374  0.39445032  0.83249272    -0.82800
H2392       H  0.16423692  0.36004487  0.83164473     0.12900
C2393       C  0.15692133  0.31294915  0.85163136     0.02300
N2394       N  0.19489203  0.30236621  0.88544318    -0.81400
H2395       H  0.23320520  0.33596554  0.88628855     0.17800
C2396       C  0.16347221  0.29123895  0.83870101    -0.26200
C2397       C  0.14790966  0.26921472  0.83870631     0.35800
C2398       C  0.12512261  0.26880497  0.85204558    -0.20300
C2399       C  0.11748436  0.29141579  0.86337672    -0.25500
C2400       C  0.13332568  0.31341615  0.86350457     0.27200
H2401       H  0.18164213  0.29098631  0.82961557     0.12900
N2402       N  0.15564149  0.24700922  0.82577206    -0.82800
H2403       H  0.09990331  0.29143822  0.87335138     0.17800
N2404       N  0.12607324  0.33578419  0.87639877    -0.81400
H2405       H  0.17302577  0.25033439  0.81726484     0.33400
H2406       H  0.14195473  0.24393907  0.81286482     0.37900
H2407       H  0.10810848  0.33310936  0.88405350     0.33400
H2408       H  0.13913000  0.33801944  0.88996357     0.30100
H2409       H  0.21095676  0.30004580  0.89600857     0.33400
H2410       H  0.17915536  0.30409025  0.89653847     0.30100
H2411       H  0.21790138  0.39208707  0.82060675     0.37900
H2412       H  0.18635471  0.39720877  0.82274683     0.33400
C2413       C  0.27913325  0.45345900  0.79645446    -0.20300
C2414       C  0.25859399  0.47112552  0.79607076     0.35900
C2415       C  0.25562639  0.48765982  0.77680019    -0.26300
C2416       C  0.27251226  0.48671039  0.75786609     0.02300
C2417       C  0.29275503  0.46899678  0.75809036     0.27100
C2418       C  0.29578018  0.45265720  0.77721729    -0.25400
N2419       N  0.24117106  0.47267650  0.81531080    -0.82800
H2420       H  0.24022510  0.50149917  0.77659077     0.12900
C2421       C  0.27008695  0.50519231  0.73833653     0.02300
N2422       N  0.31101462  0.46857928  0.73938916    -0.81400
H2423       H  0.31198402  0.43981263  0.77732944     0.17800
C2424       C  0.27917682  0.53029675  0.74112023    -0.26200
C2425       C  0.28210181  0.54673735  0.72193663     0.35800
C2426       C  0.27581373  0.53799598  0.69944208    -0.20300
C2427       C  0.26473428  0.51352636  0.69706014    -0.25500
C2428       C  0.26184880  0.49705188  0.71628120     0.27200
H2429       H  0.28527741  0.53673232  0.75809591     0.12900
N2430       N  0.29210376  0.57204983  0.72534607    -0.82800
H2431       H  0.25973384  0.50658196  0.67996514     0.17800
N2432       N  0.25179776  0.47158931  0.71336084    -0.81400
H2433       H  0.28005230  0.58162818  0.73689986     0.33400
H2434       H  0.31011840  0.57048217  0.73306803     0.37900
H2435       H  0.24700343  0.46834154  0.69602000     0.33400
H2436       H  0.23478706  0.47037070  0.72286756     0.30100
H2437       H  0.32560552  0.45545350  0.74281183     0.33400
H2438       H  0.30163810  0.46189821  0.72459862     0.30100
H2439       H  0.23101784  0.45538753  0.81604807     0.37900
H2440       H  0.22766043  0.48708238  0.81252262     0.33400
C2441       C  0.31223664  0.34606999  0.79854769    -0.20300
C2442       C  0.31386882  0.35906109  0.77709824     0.35900
C2443       C  0.31666533  0.34507289  0.75660177    -0.26300
C2444       C  0.31710830  0.31822741  0.75675173     0.02300
C2445       C  0.31392099  0.30505422  0.77801885     0.27100
C2446       C  0.31148569  0.31915615  0.79879207    -0.25400
N2447       N  0.31262152  0.38653702  0.77618738    -0.82800
H2448       H  0.31938467  0.35530338  0.74040739     0.12900
C2449       C  0.32439569  0.30508630  0.73483422     0.02300
N2450       N  0.31370691  0.27752314  0.77844710    -0.81400
H2451       H  0.30994092  0.30917229  0.81522916     0.17800
C2452       C  0.34654039  0.28997869  0.73468615    -0.26200
C2453       C  0.35911340  0.28437696  0.71380551     0.35800
C2454       C  0.34964422  0.29449375  0.69288765    -0.20300
C2455       C  0.32589934  0.30675952  0.69259523    -0.25500
C2456       C  0.31293615  0.31188759  0.71347733     0.27200
H2457       H  0.35534274  0.28450291  0.75094186     0.12900
N2458       N  0.38245227  0.26993042  0.71382892    -0.82800
H2459       H  0.31853390  0.31414893  0.67635802     0.17800
N2460       N  0.28909066  0.32550657  0.71327354    -0.81400
H2461       H  0.38670159  0.26364281  0.73060783     0.33400
H2462       H  0.37937170  0.25346185  0.70390933     0.37900
H2463       H  0.28341111  0.32936243  0.69624810     0.33400
H2464       H  0.27518695  0.31337203  0.72041356     0.30100
H2465       H  0.31129254  0.27080124  0.79540378     0.33400
H2466       H  0.29772237  0.27140109  0.76906468     0.30100
H2467       H  0.29413868  0.39166107  0.78129609     0.37900
H2468       H  0.31483370  0.39316450  0.75917584     0.33400
C2469       C  0.22642940  0.37003389  0.13880709    -0.20300
C2470       C  0.22327648  0.35174739  0.15674804     0.35900
C2471       C  0.20244432  0.33456700  0.15608086    -0.26300
C2472       C  0.18458147  0.33533842  0.13798614     0.02300
C2473       C  0.18645758  0.35493296  0.12115009     0.27100
C2474       C  0.20723548  0.37228947  0.12187287    -0.25400
N2475       N  0.24173301  0.35012341  0.17515230    -0.82800
H2476       H  0.20090469  0.31954192  0.16901758     0.12900
C2477       C  0.16749545  0.31275397  0.13451786     0.02300
N2478       N  0.16787935  0.35643628  0.10285105    -0.81400
H2479       H  0.20940175  0.38641592  0.10820565     0.17800
C2480       C  0.14255496  0.31202514  0.14363582    -0.26200
C2481       C  0.12702612  0.28979988  0.14153010     0.35800
C2482       C  0.13660054  0.26802406  0.12968642    -0.20300
C2483       C  0.16158599  0.26929330  0.12044786    -0.25500
C2484       C  0.17702005  0.29117952  0.12282412     0.27200
H2485       H  0.13541408  0.32863168  0.15280236     0.12900
N2486       N  0.10182170  0.28934999  0.15151194    -0.82800
H2487       H  0.16945510  0.25293727  0.11142088     0.17800
N2488       N  0.20272198  0.29141191  0.11383183    -0.81400
H2489       H  0.09745116  0.30712808  0.15881496     0.33400
H2490       H  0.10202837  0.27619733  0.16521414     0.37900
H2491       H  0.20715634  0.27383100  0.10618375     0.33400
H2492       H  0.20360789  0.30514268  0.10062727     0.30100
H2493       H  0.17186138  0.37201091  0.09197374     0.33400
H2494       H  0.16964217  0.33997978  0.09268217     0.30100
H2495       H  0.24106205  0.36735100  0.18435626     0.37900
H2496       H  0.23675230  0.33559598  0.18685106     0.33400
C2497       C  0.28957977  0.39984718  0.05959591    -0.20300
C2498       C  0.28179730  0.37714130  0.04823866     0.35900
C2499       C  0.28232658  0.37610176  0.02381077    -0.26300
C2500       C  0.29055275  0.39720041  0.01051996     0.02300
C2501       C  0.29883026  0.41963742  0.02191931     0.27100
C2502       C  0.29799057  0.42080636  0.04623516    -0.25400
N2503       N  0.27288933  0.35546031  0.06143766    -0.82800
H2504       H  0.27581783  0.35893441  0.01505019     0.12900
C2505       C  0.28979884  0.39596884  0.98468827     0.02300
N2506       N  0.30828810  0.44109388  0.00872219    -0.81400
H2507       H  0.30436236  0.43812709  0.05484321     0.17800
C2508       C  0.27577613  0.41440671  0.97241439    -0.26200
C2509       C  0.27485870  0.41448552  0.94802642     0.35800
C2510       C  0.28843469  0.39557874  0.93540025    -0.20300
C2511       C  0.30220355  0.37689765  0.94786954    -0.25500
C2512       C  0.30309846  0.37695389  0.97227650     0.27200
H2513       H  0.26533032  0.42882872  0.98200660     0.12900
N2514       N  0.26041411  0.43394416  0.93623611    -0.82800
H2515       H  0.31264057  0.36226322  0.93855791     0.17800
N2516       N  0.31783336  0.35804074  0.98448898    -0.81400
H2517       H  0.25315062  0.44727413  0.94802254     0.33400
H2518       H  0.24452277  0.42499258  0.92875926     0.37900
H2519       H  0.32641292  0.34534376  0.97285985     0.33400
H2520       H  0.33269286  0.36759520  0.99302018     0.30100
H2521       H  0.31355139  0.45614345  0.01968388     0.33400
H2522       H  0.32496098  0.43521718  0.00025190     0.30100
H2523       H  0.25601153  0.36086546  0.06984236     0.37900
H2524       H  0.26809204  0.34027073  0.05046112     0.33400
C2525       C  0.27329423  0.46744564  0.18997219    -0.20300
C2526       C  0.25391110  0.45745387  0.20452257     0.35900
C2527       C  0.24983683  0.46865640  0.22644085    -0.26300
C2528       C  0.26482381  0.48944496  0.23380609     0.02300
C2529       C  0.28283576  0.50051092  0.21860269     0.27100
C2530       C  0.28689128  0.48939703  0.19685795    -0.25400
N2531       N  0.23971708  0.43505783  0.19772583    -0.82800
H2532       H  0.23620196  0.46015394  0.23838483     0.12900
C2533       C  0.26557722  0.49648079  0.25856251     0.02300
N2534       N  0.29823637  0.52186014  0.22605511    -0.81400
H2535       H  0.30179717  0.49706929  0.18572973     0.17800
C2536       C  0.28438881  0.48494483  0.27227849    -0.26200
C2537       C  0.29021726  0.49445250  0.29434105     0.35800
C2538       C  0.27694349  0.51605167  0.30277222    -0.20300
C2539       C  0.25654633  0.52618683  0.28986343    -0.25500
C2540       C  0.25088658  0.51671530  0.26759445     0.27200
H2541       H  0.29546037  0.46925901  0.26519843     0.12900
N2542       N  0.31009670  0.48277098  0.30792698    -0.82800
H2543       H  0.24617055  0.54256572  0.29647684     0.17800
N2544       N  0.23092299  0.52799868  0.25388809    -0.81400
H2545       H  0.31809473  0.46724076  0.29911533     0.33400
H2546       H  0.30162562  0.47535911  0.32296216     0.37900
H2547       H  0.22181912  0.54255651  0.26316340     0.33400
H2548       H  0.23942430  0.53671403  0.23945997     0.30100
H2549       H  0.31116809  0.52727366  0.21307079     0.33400
H2550       H  0.28604516  0.53744732  0.22854983     0.30100
H2551       H  0.25251696  0.41972390  0.19693533     0.37900
H2552       H  0.22613834  0.43028817  0.21036486     0.33400
C2553       C  0.32396132  0.36888200  0.20100972    -0.20300
C2554       C  0.32627929  0.38227743  0.22229617     0.35900
C2555       C  0.33520796  0.36923875  0.24198451    -0.26300
C2556       C  0.34094496  0.34310069  0.24106640     0.02300
C2557       C  0.33617530  0.32915957  0.22069821     0.27100
C2558       C  0.32771942  0.34218873  0.20081280    -0.25400
N2559       N  0.32025840  0.40911045  0.22378796    -0.82800
H2560       H  0.33856894  0.37965181  0.25794056     0.12900
C2561       C  0.35495400  0.33150223  0.26057926     0.02300
N2562       N  0.34057150  0.30198280  0.22016676    -0.81400
H2563       H  0.32528112  0.33159176  0.18483837     0.17800
C2564       C  0.34159838  0.31978718  0.27882601    -0.26200
C2565       C  0.35468535  0.31033652  0.29835956     0.35800
C2566       C  0.38158068  0.31331573  0.29970151    -0.20300
C2567       C  0.39482770  0.32408438  0.28076305    -0.25500
C2568       C  0.38179788  0.33317963  0.26125377     0.27200
H2569       H  0.32093928  0.31831788  0.27790538     0.12900
N2570       N  0.34075569  0.29797243  0.31677975    -0.82800
H2571       H  0.41543374  0.32627818  0.28142652     0.17800
N2572       N  0.39561223  0.34496288  0.24241816    -0.81400
H2573       H  0.32116823  0.29762489  0.31312874     0.33400
H2574       H  0.34669361  0.27886812  0.31739272     0.37900
H2575       H  0.41525483  0.34520069  0.24583082     0.33400
H2576       H  0.39309344  0.33352305  0.22774189     0.30100
H2577       H  0.33577945  0.29450183  0.20393711     0.33400
H2578       H  0.36017092  0.29890794  0.22234031     0.30100
H2579       H  0.30065219  0.41103815  0.22065965     0.37900
H2580       H  0.32345077  0.41598916  0.24055427     0.33400
C2581       C  0.72068246  0.11886169  0.85334155    -0.20300
C2582       C  0.71985294  0.14130835  0.83944559     0.35900
C2583       C  0.69828628  0.15727501  0.84040125    -0.26300
C2584       C  0.67731622  0.15115013  0.85449997     0.02300
C2585       C  0.67707679  0.12777857  0.86681636     0.27100
C2586       C  0.69877300  0.11179087  0.86607299    -0.25400
N2587       N  0.74113886  0.14817804  0.82482440    -0.82800
H2588       H  0.69822961  0.17518018  0.83083357     0.12900
C2589       C  0.65789420  0.17126014  0.85877436     0.02300
N2590       N  0.65499555  0.12059065  0.88027388    -0.81400
H2591       H  0.69903295  0.09443296  0.87640726     0.17800
C2592       C  0.63754777  0.17501802  0.84324791    -0.26200
C2593       C  0.62092452  0.19619558  0.84559203     0.35800
C2594       C  0.62497629  0.21384688  0.86380662    -0.20300
C2595       C  0.64481938  0.20926243  0.87971879    -0.25500
C2596       C  0.66146749  0.18849128  0.87722248     0.27200
H2597       H  0.63519099  0.16188745  0.82887966     0.12900
N2598       N  0.60109486  0.20057668  0.82883069    -0.82800
H2599       H  0.64806284  0.22263199  0.89377308     0.17800
N2600       N  0.68301494  0.18572164  0.89251902    -0.81400
H2601       H  0.60156736  0.18652807  0.81594150     0.33400
H2602       H  0.58354366  0.19842018  0.83734456     0.37900
H2603       H  0.68357668  0.20065784  0.90456394     0.33400
H2604       H  0.68047376  0.16885694  0.90204509     0.30100
H2605       H  0.65776424  0.10270124  0.88805745     0.33400
H2606       H  0.65294825  0.13376867  0.89374785     0.30100
H2607       H  0.73756878  0.16532909  0.81601517     0.37900
H2608       H  0.74287422  0.13395562  0.81218375     0.33400
C2609       C  0.64655296  0.30054576  0.80166586    -0.20300
C2610       C  0.63420008  0.29715988  0.78013855     0.35900
C2611       C  0.64818490  0.30010655  0.75950880    -0.26300
C2612       C  0.67422304  0.30654026  0.75997602     0.02300
C2613       C  0.68709692  0.30754095  0.78148343     0.27100
C2614       C  0.67311776  0.30431406  0.80222512    -0.25400
N2615       N  0.60725622  0.29166554  0.77933881    -0.82800
H2616       H  0.63828736  0.29939943  0.74302215     0.12900
C2617       C  0.68547654  0.31831105  0.73880751     0.02300
N2618       N  0.71398445  0.31333002  0.78210399    -0.81400
H2619       H  0.68261774  0.30648622  0.81879311     0.17800
C2620       C  0.69101319  0.34452158  0.73970351    -0.26200
C2621       C  0.69546671  0.35865409  0.71947395     0.35800
C2622       C  0.69443942  0.34640858  0.69767906    -0.20300
C2623       C  0.69111532  0.31970345  0.69677341    -0.25500
C2624       C  0.68643352  0.30548672  0.71726627     0.27200
H2625       H  0.69022818  0.35438348  0.75621018     0.12900
N2626       N  0.70032095  0.38570983  0.72088919    -0.82800
H2627       H  0.69053419  0.31025409  0.68007529     0.17800
N2628       N  0.68168023  0.27838238  0.71627639    -0.81400
H2629       H  0.70015574  0.39190602  0.73811632     0.33400
H2630       H  0.71888576  0.38863944  0.71472145     0.37900
H2631       H  0.68299782  0.27188058  0.69918342     0.33400
H2632       H  0.69627151  0.26932056  0.72553727     0.30100
H2633       H  0.72054563  0.31369327  0.79921618     0.33400
H2634       H  0.72354405  0.29833231  0.77384065     0.30100
H2635       H  0.60444479  0.27366204  0.78694132     0.37900
H2636       H  0.60098851  0.29015063  0.76218932     0.33400
C2637       C  0.53896457  0.27003349  0.79862805    -0.20300
C2638       C  0.53532806  0.28772136  0.78028157     0.35900
C2639       C  0.51988894  0.28115787  0.76149289    -0.26300
C2640       C  0.50737242  0.25750246  0.76058957     0.02300
C2641       C  0.51095028  0.23949746  0.77853799     0.27100
C2642       C  0.52683290  0.24593162  0.79746686    -0.25400
N2643       N  0.54617400  0.31297904  0.78109384    -0.82800
H2644       H  0.51683327  0.29512422  0.74782528     0.12900
C2645       C  0.48888833  0.25373777  0.74153303     0.02300
N2646       N  0.49853735  0.21491434  0.77745102    -0.81400
H2647       H  0.52947840  0.23228354  0.81143470     0.17800
C2648       C  0.49782734  0.24595772  0.71975618    -0.26200
C2649       C  0.48303320  0.24973577  0.69963260     0.35800
C2650       C  0.45851683  0.26113712  0.70154477    -0.20300
C2651       C  0.44919902  0.26736247  0.72370957    -0.25500
C2652       C  0.46412385  0.26390896  0.74364060     0.27200
H2653       H  0.51720941  0.23883147  0.71824896     0.12900
N2654       N  0.49371407  0.24384665  0.67728762    -0.82800
H2655       H  0.43083963  0.27660788  0.72542458     0.17800
N2656       N  0.45510535  0.27267962  0.76581037    -0.81400
H2657       H  0.51147749  0.23490852  0.67907776     0.33400
H2658       H  0.49725554  0.26122776  0.66877806     0.37900
H2659       H  0.43681867  0.28057176  0.76432547     0.33400
H2660       H  0.45329324  0.25668654  0.77662786     0.30100
H2661       H  0.50336523  0.20382617  0.79190792     0.33400
H2662       H  0.47880253  0.21789279  0.77833818     0.30100
H2663       H  0.55748636  0.31562213  0.76630936     0.37900
H2664       H  0.53124164  0.32624751  0.78052127     0.33400
C2665       C  0.38190021  0.36956593  0.87389960    -0.20300
C2666       C  0.38919090  0.34386905  0.87021323     0.35900
C2667       C  0.41449492  0.33632713  0.87430339    -0.26300
C2668       C  0.43292513  0.35384820  0.88218995     0.02300
C2669       C  0.42547782  0.37932213  0.88694051     0.27100
C2670       C  0.40009581  0.38698353  0.88252857    -0.25400
N2671       N  0.37133825  0.32559906  0.86109907    -0.82800
H2672       H  0.42003926  0.31685700  0.87022071     0.12900
C2673       C  0.46026116  0.34577683  0.88259323     0.02300
N2674       N  0.44380216  0.39733771  0.89591198    -0.81400
H2675       H  0.39455049  0.40667098  0.88563000     0.17800
C2676       C  0.47800906  0.35943320  0.86911650    -0.26200
C2677       C  0.50284292  0.35018961  0.86551835     0.35800
C2678       C  0.51033442  0.32646087  0.87534011    -0.20300
C2679       C  0.49306092  0.31363383  0.89011668    -0.25500
C2680       C  0.46814870  0.32309191  0.89388641     0.27200
H2681       H  0.47221615  0.37686567  0.86035757     0.12900
N2682       N  0.52013618  0.36484118  0.85140287    -0.82800
H2683       H  0.49862543  0.29568448  0.89808467     0.17800
N2684       N  0.45059445  0.30945766  0.90867973    -0.81400
H2685       H  0.52226739  0.38296238  0.85887062     0.33400
H2686       H  0.51188322  0.36717661  0.83503343     0.37900
H2687       H  0.45924297  0.29310078  0.91558253     0.33400
H2688       H  0.44629345  0.32139079  0.92268091     0.30100
H2689       H  0.43531910  0.41523751  0.89842062     0.33400
H2690       H  0.44943740  0.39078786  0.91226324     0.30100
H2691       H  0.37861009  0.31864326  0.84543929     0.37900
H2692       H  0.37007355  0.31027093  0.87275605     0.33400
C2693       C  0.62834621  0.21198204  0.13730633    -0.20300
C2694       C  0.62168474  0.18936520  0.12506565     0.35900
C2695       C  0.63868880  0.16826918  0.12502552    -0.26300
C2696       C  0.66231273  0.16941204  0.13660383     0.02300
C2697       C  0.66872824  0.19169624  0.14906525     0.27100
C2698       C  0.65162095  0.21239607  0.14959886    -0.25400
N2699       N  0.59836560  0.18816211  0.11192786    -0.82800
H2700       H  0.63409131  0.15133560  0.11500251     0.12900
C2701       C  0.68215503  0.14940194  0.13265201     0.02300
N2702       N  0.69345728  0.19393657  0.15981725    -0.81400
H2703       H  0.65713723  0.22948806  0.15899291     0.17800
C2704       C  0.69768640  0.15175762  0.11295434    -0.26200
C2705       C  0.71979921  0.13679027  0.11021716     0.35800
C2706       C  0.72686025  0.11916143  0.12775326    -0.20300
C2707       C  0.71025214  0.11538766  0.14668868    -0.25500
C2708       C  0.68791640  0.13038803  0.14932647     0.27200
H2709       H  0.69304345  0.16613281  0.10004953     0.12900
N2710       N  0.73541005  0.13977312  0.08981721    -0.82800
H2711       H  0.71528909  0.10156239  0.15994462     0.17800
N2712       N  0.67114083  0.12639150  0.16879289    -0.81400
H2713       H  0.72767213  0.15354489  0.07868283     0.33400
H2714       H  0.73501667  0.12237574  0.08085629     0.37900
H2715       H  0.67793757  0.11152772  0.17926732     0.33400
H2716       H  0.67136494  0.14290870  0.17897313     0.30100
H2717       H  0.69577058  0.21202353  0.16730750     0.33400
H2718       H  0.69429722  0.18069658  0.17338986     0.30100
H2719       H  0.60013851  0.20105337  0.09810381     0.37900
H2720       H  0.59606169  0.17001936  0.10454368     0.33400
C2721       C  0.50611778  0.32054696  0.11832017    -0.20300
C2722       C  0.50442262  0.34641188  0.11094938     0.35900
C2723       C  0.48027210  0.35798595  0.10887730    -0.26300
C2724       C  0.45781109  0.34437974  0.11409158     0.02300
C2725       C  0.45936920  0.31831636  0.12045791     0.27100
C2726       C  0.48348457  0.30656471  0.12217747    -0.25400
N2727       N  0.52721708  0.36103085  0.10614879    -0.82800
H2728       H  0.47894130  0.37797686  0.10389823     0.12900
C2729       C  0.43303591  0.35820376  0.11515017     0.02300
N2730       N  0.43651564  0.30423662  0.12621051    -0.81400
H2731       H  0.48463441  0.28684265  0.12798416     0.17800
C2732       C  0.41286800  0.35104343  0.10047980    -0.26200
C2733       C  0.38837216  0.36196965  0.10282774     0.35800
C2734       C  0.38393024  0.38022311  0.12052789    -0.20300
C2735       C  0.40468296  0.38829775  0.13427116    -0.25500
C2736       C  0.42903611  0.37738014  0.13190303     0.27200
H2737       H  0.41618613  0.33651177  0.08743678     0.12900
N2738       N  0.36803706  0.35417928  0.08761072    -0.82800
H2739       H  0.40173270  0.40245270  0.14770984     0.17800
N2740       N  0.44951428  0.38500452  0.14706129    -0.81400
H2741       H  0.37441166  0.34025040  0.07597105     0.33400
H2742       H  0.36295896  0.37013052  0.07764409     0.37900
H2743       H  0.44349496  0.39942808  0.15835739     0.33400
H2744       H  0.45418752  0.36920124  0.15737857     0.30100
H2745       H  0.44092889  0.28531228  0.13060064     0.33400
H2746       H  0.42860503  0.31256000  0.14104562     0.30100
H2747       H  0.53627079  0.35261328  0.09191015     0.37900
H2748       H  0.52263727  0.37976299  0.10124432     0.33400
C2749       C  0.59374744  0.28094892  0.93747909    -0.20300
C2750       C  0.57370511  0.26857512  0.94979999     0.35900
C2751       C  0.57459436  0.26749299  0.97412744    -0.26300
C2752       C  0.59458039  0.27901556  0.98655466     0.02300
C2753       C  0.61453174  0.29139808  0.97439690     0.27100
C2754       C  0.61397874  0.29209907  0.95004394    -0.25400
N2755       N  0.55236517  0.25737965  0.93774236    -0.82800
H2756       H  0.55941799  0.25779167  0.98354183     0.12900
C2757       C  0.59403290  0.27819702  0.01230846     0.02300
N2758       N  0.63513397  0.30343722  0.98682885    -0.81400
H2759       H  0.62949295  0.30149683  0.94085211     0.17800
C2760       C  0.61476002  0.26765983  0.02445542    -0.26200
C2761       C  0.61457277  0.26606470  0.04879625     0.35800
C2762       C  0.59305908  0.27499077  0.06117955    -0.20300
C2763       C  0.57232793  0.28545554  0.04899800    -0.25500
C2764       C  0.57272354  0.28746691  0.02474031     0.27200
H2765       H  0.63099471  0.26034089  0.01485978     0.12900
N2766       N  0.63592576  0.25506630  0.06090110    -0.82800
H2767       H  0.55598179  0.29270049  0.05850066     0.17800
N2768       N  0.55173343  0.29920573  0.01267487    -0.81400
H2769       H  0.65023848  0.24963881  0.04923712     0.33400
H2770       H  0.62949962  0.23827700  0.06899653     0.37900
H2771       H  0.53754854  0.30495469  0.02434165     0.33400
H2772       H  0.55868144  0.31586690  0.00472287     0.30100
H2773       H  0.64838626  0.31152764  0.97532437     0.33400
H2774       H  0.62739309  0.31856149  0.99637260     0.30100
H2775       H  0.54214901  0.27233527  0.93004099     0.37900
H2776       H  0.53978733  0.24845636  0.94936903     0.33400
C2777       C  0.69069930  0.36576487  0.29787929    -0.20300
C2778       C  0.69345387  0.37723150  0.27574513     0.35900
C2779       C  0.68549969  0.36368650  0.25609111    -0.26300
C2780       C  0.67536941  0.33894665  0.25809889     0.02300
C2781       C  0.67492097  0.32650366  0.27973985     0.27100
C2782       C  0.68282746  0.34000583  0.29950125    -0.25400
N2783       N  0.70344048  0.40283000  0.27333086    -0.82800
H2784       H  0.68585341  0.37294370  0.23924695     0.12900
C2785       C  0.66086904  0.32870492  0.23837866     0.02300
N2786       N  0.66542029  0.30068326  0.28164510    -0.81400
H2787       H  0.68125194  0.33088328  0.31633749     0.17800
C2788       C  0.67263899  0.31265392  0.22214943    -0.26200
C2789       C  0.65931379  0.30457098  0.20225220     0.35800
C2790       C  0.63393587  0.31298304  0.19875858    -0.20300
C2791       C  0.62219677  0.32856025  0.21549022    -0.25500
C2792       C  0.63541467  0.33654973  0.23520619     0.27200
H2793       H  0.69226987  0.30678083  0.22487965     0.12900
N2794       N  0.67138874  0.28797962  0.18570043    -0.82800
H2795       H  0.60279632  0.33522111  0.21287519     0.17800
N2796       N  0.62342912  0.35332984  0.25171615    -0.81400
H2797       H  0.69007465  0.28373184  0.19084934     0.33400
H2798       H  0.66129856  0.27063828  0.18573236     0.37900
H2799       H  0.60482945  0.35786466  0.24651255     0.33400
H2800       H  0.62172782  0.34334166  0.26737687     0.30100
H2801       H  0.66662734  0.29423496  0.29878458     0.33400
H2802       H  0.64597950  0.30083766  0.27741448     0.30100
H2803       H  0.72247977  0.40255548  0.27886162     0.37900
H2804       H  0.70374027  0.40845830  0.25592123     0.33400
C2805       C  0.53306399  0.25961593  0.19442254    -0.20300
C2806       C  0.51157098  0.27303806  0.20285971     0.35900
C2807       C  0.50185279  0.26716642  0.22487952    -0.26300
C2808       C  0.51296458  0.24807238  0.23859227     0.02300
C2809       C  0.53296225  0.23305269  0.22948791     0.27100
C2810       C  0.54281660  0.23892489  0.20728649    -0.25400
N2811       N  0.50016294  0.29311596  0.18926960    -0.82800
H2812       H  0.48624277  0.27837966  0.23190473     0.12900
C2813       C  0.50525101  0.24711192  0.26326327     0.02300
N2814       N  0.54330549  0.21225029  0.24284626    -0.81400
H2815       H  0.55904053  0.22835467  0.20062867     0.17800
C2816       C  0.48242318  0.23466321  0.26957807    -0.26200
C2817       C  0.47046792  0.23992070  0.29096510     0.35800
C2818       C  0.48167578  0.25797935  0.30606757    -0.20300
C2819       C  0.50538416  0.26898942  0.30036487    -0.25500
C2820       C  0.51733467  0.26369266  0.27913219     0.27200
H2821       H  0.47303752  0.22228734  0.25712978     0.12900
N2822       N  0.44622394  0.22840634  0.29665092    -0.82800
H2823       H  0.51399798  0.28274280  0.31208376     0.17800
N2824       N  0.54064117  0.27668737  0.27277527    -0.81400
H2825       H  0.44060437  0.21560580  0.28368561     0.33400
H2826       H  0.43256091  0.24299356  0.29692067     0.37900
H2827       H  0.54653514  0.28900727  0.28602086     0.33400
H2828       H  0.55494047  0.26287635  0.27111742     0.30100
H2829       H  0.55771562  0.20297503  0.23352045     0.33400
H2830       H  0.55196795  0.21990849  0.25760591     0.30100
H2831       H  0.49278133  0.28475258  0.17423169     0.37900
H2832       H  0.48466546  0.30121494  0.19805177     0.33400
C2833       C  0.88109092  0.71272076  0.85453734    -0.20300
C2834       C  0.87704270  0.69604957  0.87345947     0.35900
C2835       C  0.86036457  0.67496480  0.87092752    -0.26300
C2836       C  0.84793413  0.67007488  0.84976499     0.02300
C2837       C  0.85398270  0.68551432  0.83029848     0.27100
C2838       C  0.87005262  0.70698252  0.83302693    -0.25400
N2839       N  0.88870368  0.70141246  0.89549375    -0.82800
H2840       H  0.85574038  0.66336263  0.88596511     0.12900
C2841       C  0.82581031  0.65180646  0.84928615     0.02300
N2842       N  0.84310545  0.67976602  0.80801975    -0.81400
H2843       H  0.87352073  0.71968741  0.81844974     0.17800
C2844       C  0.80227166  0.66077180  0.84100404    -0.26200
C2845       C  0.77993958  0.64607051  0.84291086     0.35800
C2846       C  0.78055925  0.62187460  0.85402968    -0.20300
C2847       C  0.80434041  0.61216780  0.86124515    -0.25500
C2848       C  0.82701035  0.62684329  0.85885608     0.27200
H2849       H  0.80089827  0.67986755  0.83369873     0.12900
N2850       N  0.75656747  0.65606944  0.83363942    -0.82800
H2851       H  0.80515617  0.59346187  0.86938873     0.17800
N2852       N  0.85112920  0.61667304  0.86637913    -0.81400
H2853       H  0.75923950  0.65952763  0.81593503     0.33400
H2854       H  0.75279988  0.67357612  0.84171731     0.37900
H2855       H  0.84875956  0.59816298  0.87304391     0.33400
H2856       H  0.86284609  0.61504962  0.85175007     0.30100
H2857       H  0.84931236  0.69302605  0.79558695     0.33400
H2858       H  0.85010688  0.66190475  0.80290404     0.30100
H2859       H  0.88108829  0.71861294  0.90164746     0.37900
H2860       H  0.88383980  0.68727500  0.90761494     0.33400
C2861       C  0.69378517  0.63338501  0.79770002    -0.20300
C2862       C  0.71052990  0.62834956  0.77912886     0.35900
C2863       C  0.70670449  0.64089807  0.75786589    -0.26300
C2864       C  0.68617630  0.65785421  0.75494618     0.02300
C2865       C  0.67047171  0.66404082  0.77407072     0.27100
C2866       C  0.67492381  0.65215818  0.79549857    -0.25400
N2867       N  0.73041451  0.60957568  0.78165656    -0.82800
H2868       H  0.71832856  0.63583541  0.74299927     0.12900
C2869       C  0.67670395  0.66254803  0.73126525     0.02300
N2870       N  0.64828628  0.67992023  0.77098785    -0.81400
H2871       H  0.66208618  0.65573734  0.80990793     0.17800
C2872       C  0.66369438  0.64232094  0.72055435    -0.26200
C2873       C  0.65026592  0.64611716  0.69992416     0.35800
C2874       C  0.64920363  0.67093691  0.69016904    -0.20300
C2875       C  0.66403561  0.69073471  0.69978880    -0.25500
C2876       C  0.67814717  0.68666282  0.72026853     0.27200
H2877       H  0.66329448  0.62364027  0.72882875     0.12900
N2878       N  0.63727321  0.62496458  0.68904873    -0.82800
H2879       H  0.66379395  0.70955012  0.69188490     0.17800
N2880       N  0.69424352  0.70655049  0.72953540    -0.81400
H2881       H  0.63992270  0.60806008  0.69850200     0.33400
H2882       H  0.64579017  0.62208061  0.67284719     0.37900
H2883       H  0.69345796  0.72289376  0.71903916     0.33400
H2884       H  0.68719282  0.71188958  0.74573405     0.30100
H2885       H  0.63749161  0.68062954  0.78625213     0.33400
H2886       H  0.65454517  0.69862125  0.76789563     0.30100
H2887       H  0.74309922  0.61624522  0.79429947     0.37900
H2888       H  0.74091212  0.60794063  0.76628734     0.33400
C2889       C  0.73064617  0.52354243  0.80132803    -0.20300
C2890       C  0.71595703  0.50165159  0.79563875     0.35900
C2891       C  0.72109728  0.48843854  0.77509540    -0.26300
C2892       C  0.74058009  0.49651260  0.76005967     0.02300
C2893       C  0.75592188  0.51779272  0.76600780     0.27100
C2894       C  0.75090537  0.53109972  0.78679510    -0.25400
N2895       N  0.69542514  0.49329038  0.81054283    -0.82800
H2896       H  0.70929952  0.47213740  0.77037481     0.12900
C2897       C  0.74294256  0.48311231  0.73756117     0.02300
N2898       N  0.77606751  0.52603182  0.75071374    -0.81400
H2899       H  0.76196482  0.54803345  0.79109915     0.17800
C2900       C  0.73552281  0.49586164  0.71722834    -0.26200
C2901       C  0.73096844  0.48215107  0.69666479     0.35800
C2902       C  0.73401997  0.45527934  0.69663062    -0.20300
C2903       C  0.74340383  0.44291911  0.71640843    -0.25500
C2904       C  0.74788732  0.45658920  0.73693240     0.27200
H2905       H  0.73152599  0.51621343  0.71786795     0.12900
N2906       N  0.72122125  0.49504170  0.67647263    -0.82800
H2907       H  0.74641756  0.42244037  0.71606301     0.17800
N2908       N  0.75621454  0.44352642  0.75752876    -0.81400
H2909       H  0.71882102  0.51458435  0.67975698     0.33400
H2910       H  0.73508707  0.49370820  0.66345600     0.37900
H2911       H  0.75861814  0.42397261  0.75429306     0.33400
H2912       H  0.77423440  0.45082902  0.76185921     0.30100
H2913       H  0.78547107  0.54203509  0.75754736     0.33400
H2914       H  0.78955267  0.51130465  0.74996115     0.30100
H2915       H  0.70346800  0.48769517  0.82634264     0.37900
H2916       H  0.68630732  0.47711060  0.80372917     0.33400
C2917       C  0.66887908  0.50289708  0.87505197    -0.20300
C2918       C  0.68048615  0.48524072  0.89034102     0.35900
C2919       C  0.67003233  0.46042880  0.89272412    -0.26300
C2920       C  0.64837000  0.45281919  0.88001241     0.02300
C2921       C  0.63594830  0.47097496  0.86579315     0.27100
C2922       C  0.64611562  0.49582923  0.86374983    -0.25400
N2923       N  0.70300663  0.49238807  0.90309506    -0.82800
H2924       H  0.67923322  0.44668408  0.90405173     0.12900
C2925       C  0.64003016  0.42542286  0.88014669     0.02300
N2926       N  0.61373171  0.46378918  0.85259385    -0.81400
H2927       H  0.63701182  0.50924994  0.85204603     0.17800
C2928       C  0.61434463  0.41914599  0.88481534    -0.26200
C2929       C  0.60509210  0.39397698  0.88189639     0.35800
C2930       C  0.62203436  0.37454686  0.87460807    -0.20300
C2931       C  0.64802671  0.38050076  0.87145446    -0.25500
C2932       C  0.65712497  0.40574364  0.87373361     0.27200
H2933       H  0.60131149  0.43413247  0.89013235     0.12900
N2934       N  0.57855528  0.38817312  0.88603754    -0.82800
H2935       H  0.66107809  0.36564893  0.86585788     0.17800
N2936       N  0.68342804  0.41162662  0.86854754    -0.81400
H2937       H  0.56865302  0.40462372  0.89108112     0.33400
H2938       H  0.57763709  0.37539542  0.90000841     0.37900
H2939       H  0.69346033  0.39500818  0.86421313     0.33400
H2940       H  0.68371021  0.42336843  0.85383230     0.30100
H2941       H  0.60677444  0.47940983  0.84316330     0.33400
H2942       H  0.61941438  0.45008103  0.84045454     0.30100
H2943       H  0.69792271  0.50719235  0.91437126     0.37900
H2944       H  0.70922590  0.47716906  0.91344800     0.33400
C2945       C  0.78156383  0.61753938  0.13524634    -0.20300
C2946       C  0.80506308  0.61014865  0.12496129     0.35900
C2947       C  0.82563335  0.62776775  0.12418270    -0.26300
C2948       C  0.82319944  0.65246744  0.13341605     0.02300
C2949       C  0.80018090  0.65963489  0.14420874     0.27100
C2950       C  0.77980373  0.64210005  0.14524879    -0.25400
N2951       N  0.80770274  0.58536230  0.11443983    -0.82800
H2952       H  0.84335137  0.62256002  0.11565926     0.12900
C2953       C  0.84350770  0.67190654  0.12949191     0.02300
N2954       N  0.79722393  0.68519177  0.15310300    -0.81400
H2955       H  0.76204832  0.64814808  0.15320450     0.17800
C2956       C  0.84074683  0.68866022  0.11073037    -0.26200
C2957       C  0.85707020  0.70982979  0.10791802     0.35800
C2958       C  0.87652366  0.71458453  0.12448823    -0.20300
C2959       C  0.88030054  0.69681936  0.14250381    -0.25500
C2960       C  0.86377717  0.67555300  0.14526275     0.27200
H2961       H  0.82520449  0.68560587  0.09861044     0.12900
N2962       N  0.85359055  0.72682804  0.08851217    -0.82800
H2963       H  0.89521030  0.70029111  0.15515399     0.17800
N2964       N  0.86703901  0.65806339  0.16429647    -0.81400
H2965       H  0.83823590  0.72085115  0.07823226     0.33400
H2966       H  0.86996605  0.72558719  0.07816690     0.37900
H2967       H  0.88291815  0.66332711  0.17423310     0.33400
H2968       H  0.85104778  0.65969974  0.17509605     0.30100
H2969       H  0.77888608  0.68770357  0.15998884     0.33400
H2970       H  0.81004659  0.68741395  0.16684806     0.30100
H2971       H  0.80694699  0.57171891  0.12772816     0.37900
H2972       H  0.82570301  0.58353345  0.10669197     0.33400
C2973       C  0.67729531  0.49174186  0.11494981    -0.20300
C2974       C  0.65220866  0.48957226  0.10595381     0.35900
C2975       C  0.64107695  0.46517907  0.10323207    -0.26300
C2976       C  0.65426119  0.44287784  0.10959939     0.02300
C2977       C  0.67987812  0.44492476  0.11721283     0.27100
C2978       C  0.69122243  0.46932085  0.11951759    -0.25400
N2979       N  0.63785646  0.51216453  0.10020196    -0.82800
H2980       H  0.62159331  0.46355974  0.09699114     0.12900
C2981       C  0.64023622  0.41794418  0.11069805     0.02300
N2982       N  0.69385725  0.42232780  0.12366671    -0.81400
H2983       H  0.71044329  0.47085560  0.12640344     0.17800
C2984       C  0.64941482  0.39658856  0.09852952    -0.26200
C2985       C  0.63839516  0.37208895  0.10158782     0.35800
C2986       C  0.61808920  0.36879352  0.11768216    -0.20300
C2987       C  0.60778836  0.39062220  0.12842610    -0.25500
C2988       C  0.61859696  0.41504523  0.12515780     0.27200
H2989       H  0.66559830  0.39899495  0.08695134     0.12900
N2990       N  0.64829315  0.35060256  0.08889964    -0.82800
H2991       H  0.59180045  0.38855004  0.14026789     0.17800
N2992       N  0.60824986  0.43677128  0.13722391    -0.81400
H2993       H  0.66365145  0.35623505  0.07839998     0.33400
H2994       H  0.63387681  0.34435206  0.07767726     0.37900
H2995       H  0.59214323  0.43148456  0.14691621     0.33400
H2996       H  0.62202637  0.44304727  0.14906707     0.30100
H2997       H  0.71243549  0.42711058  0.12883080     0.33400
H2998       H  0.68480756  0.41429081  0.13815358     0.30100
H2999       H  0.64734819  0.52138189  0.08654418     0.37900
H3000       H  0.61966104  0.50726948  0.09409628     0.33400
C3001       C  0.72082449  0.58504905  0.93519811    -0.20300
C3002       C  0.71284642  0.60627929  0.94875849     0.35900
C3003       C  0.71455997  0.60497465  0.97305066    -0.26300
C3004       C  0.72417172  0.58319052  0.98417211     0.02300
C3005       C  0.73248557  0.56221795  0.97085568     0.27100
C3006       C  0.73066228  0.56330886  0.94656805    -0.25400
N3007       N  0.70259218  0.62893067  0.93804406    -0.82800
H3008       H  0.70804856  0.62094840  0.98345952     0.12900
C3009       C  0.72421052  0.58210227  0.00985486     0.02300
N3010       N  0.74266282  0.53986320  0.98211457    -0.81400
H3011       H  0.73695126  0.54699266  0.93650575     0.17800
C3012       C  0.70893015  0.56368293  0.02100788    -0.26200
C3013       C  0.70806866  0.56200963  0.04528810     0.35800
C3014       C  0.72275720  0.57925609  0.05863639    -0.20300
C3015       C  0.73762918  0.59806743  0.04751862    -0.25500
C3016       C  0.73868875  0.59952983  0.02318440     0.27200
H3017       H  0.69744889  0.55070439  0.01066397     0.12900
N3018       N  0.69139102  0.54372900  0.05640270    -0.82800
H3019       H  0.74871057  0.61138502  0.05787140     0.17800
N3020       N  0.75445243  0.61848491  0.01194418    -0.81400
H3021       H  0.68046813  0.53390916  0.04409392     0.33400
H3022       H  0.70283442  0.52995030  0.06443503     0.37900
H3023       H  0.76378385  0.62986583  0.02422866     0.33400
H3024       H  0.76871423  0.60880458  0.00277391     0.30100
H3025       H  0.74777511  0.52602074  0.96989298     0.33400
H3026       H  0.75951214  0.54533702  0.99053931     0.30100
H3027       H  0.71769033  0.63824558  0.92955961     0.37900
H3028       H  0.69594217  0.64175832  0.95056313     0.33400
C3029       C  0.68121066  0.62098778  0.19508815    -0.20300
C3030       C  0.68915396  0.64670758  0.19808658     0.35900
C3031       C  0.68193869  0.65983918  0.21836466    -0.26300
C3032       C  0.66718788  0.64755847  0.23540762     0.02300
C3033       C  0.65943005  0.62195351  0.23247077     0.27100
C3034       C  0.66659743  0.60892748  0.21242782    -0.25400
N3035       N  0.70443462  0.65930352  0.18070191    -0.82800
H3036       H  0.68754545  0.67965962  0.22081484     0.12900
C3037       C  0.65788992  0.66163825  0.25572650     0.02300
N3038       N  0.64352298  0.60959763  0.24958931    -0.81400
H3039       H  0.66015125  0.58933535  0.21012751     0.17800
C3040       C  0.63317679  0.67167000  0.25469186    -0.26200
C3041       C  0.62006849  0.67810276  0.27495106     0.35800
C3042       C  0.63195391  0.67444044  0.29671253    -0.20300
C3043       C  0.65769329  0.66679687  0.29750455    -0.25500
C3044       C  0.67075576  0.66007000  0.27710758     0.27200
H3045       H  0.62336625  0.67285385  0.23817442     0.12900
N3046       N  0.59442244  0.68760164  0.27332082    -0.82800
H3047       H  0.66710052  0.66446933  0.31409631     0.17800
N3048       N  0.69654540  0.65062408  0.27806358    -0.81400
H3049       H  0.59470054  0.70425489  0.26320749     0.33400
H3050       H  0.58327154  0.67389828  0.26477033     0.37900
H3051       H  0.70330582  0.65088739  0.29511342     0.33400
H3052       H  0.69629454  0.63142305  0.27294154     0.30100
H3053       H  0.63879294  0.59097472  0.24444276     0.33400
H3054       H  0.65422590  0.60782894  0.26479568     0.30100
H3055       H  0.72201736  0.64984818  0.17995055     0.37900
H3056       H  0.70839134  0.67820127  0.18555268     0.33400
C3057       C  0.73507530  0.52073709  0.19307872    -0.20300
C3058       C  0.72086350  0.49996745  0.20222887     0.35900
C3059       C  0.72701070  0.48985571  0.22399274    -0.26300
C3060       C  0.74719749  0.49992096  0.23704658     0.02300
C3061       C  0.76266641  0.51952451  0.22748403     0.27100
C3062       C  0.75652662  0.52970078  0.20541635    -0.25400
N3063       N  0.69985964  0.48921743  0.18955150    -0.82800
H3064       H  0.71524152  0.47462688  0.23118692     0.12900
C3065       C  0.74923457  0.49142395  0.26155223     0.02300
N3066       N  0.78427478  0.52910258  0.24022625    -0.81400
H3067       H  0.76769869  0.54544033  0.19839061     0.17800
C3068       C  0.76164215  0.46832289  0.26695359    -0.26200
C3069       C  0.75793000  0.45627282  0.28867140     0.35800
C3070       C  0.74129669  0.46753679  0.30499774    -0.20300
C3071       C  0.73027552  0.49140184  0.30004400    -0.25500
C3072       C  0.73406111  0.50345804  0.27852940     0.27200
H3073       H  0.77289713  0.45892095  0.25369550     0.12900
N3074       N  0.76915628  0.43171492  0.29339426    -0.82800
H3075       H  0.71743651  0.49996990  0.31258865     0.17800
N3076       N  0.72087016  0.52685755  0.27312085    -0.81400
H3077       H  0.78003435  0.42560523  0.27923142     0.33400
H3078       H  0.78190330  0.43405580  0.30718198     0.37900
H3079       H  0.70966936  0.53272777  0.28716289     0.33400
H3080       H  0.73464825  0.54114891  0.27057555     0.30100
H3081       H  0.79379238  0.54328563  0.23067220     0.33400
H3082       H  0.77744615  0.53793275  0.25523690     0.30100
H3083       H  0.68337995  0.49071797  0.19975597     0.37900
H3084       H  0.70354004  0.46976189  0.18689381     0.33400
C3085       C  0.36841773  0.76539937  0.85135628    -0.20300
C3086       C  0.34345166  0.76442117  0.84190652     0.35900
C3087       C  0.32879556  0.78678100  0.84029530    -0.26300
C3088       C  0.33846534  0.81061781  0.84735875     0.02300
C3089       C  0.36389720  0.81206973  0.85556793     0.27100
C3090       C  0.37854306  0.78946553  0.85760476    -0.25400
N3091       N  0.33261743  0.74073456  0.83403276    -0.82800
H3092       H  0.30929763  0.78528695  0.83406084     0.12900
C3093       C  0.32075301  0.83307223  0.84770918     0.02300
N3094       N  0.37465656  0.83642623  0.86196572    -0.81400
H3095       H  0.39775728  0.79063491  0.86454540     0.17800
C3096       C  0.31675800  0.84631396  0.86860917    -0.26200
C3097       C  0.29664788  0.86404669  0.87097722     0.35800
C3098       C  0.28016998  0.86857725  0.85207450    -0.20300
C3099       C  0.28497352  0.85647056  0.83083267    -0.25500
C3100       C  0.30535072  0.83911684  0.82832848     0.27200
H3101       H  0.32833221  0.84162329  0.88358178     0.12900
N3102       N  0.29199140  0.87630330  0.89287979    -0.82800
H3103       H  0.27235676  0.86012389  0.81630757     0.17800
N3104       N  0.31006151  0.82704331  0.80636003    -0.81400
H3105       H  0.30584600  0.87095276  0.90500058     0.33400
H3106       H  0.27445136  0.86956003  0.89921814     0.37900
H3107       H  0.29698894  0.83342556  0.79393604     0.33400
H3108       H  0.32818384  0.83291175  0.80071749     0.30100
H3109       H  0.39349163  0.83423660  0.86770250     0.33400
H3110       H  0.37548109  0.84774903  0.84700183     0.30100
H3111       H  0.31577834  0.73728737  0.84336189     0.37900
H3112       H  0.32781065  0.74284337  0.81654183     0.33400
C3113       C  0.45953964  0.71868122  0.79401580    -0.20300
C3114       C  0.45622343  0.70420469  0.77358267     0.35900
C3115       C  0.47144618  0.70958130  0.75412810    -0.26300
C3116       C  0.48971964  0.72924404  0.75458971     0.02300
C3117       C  0.49140030  0.74534778  0.77415664     0.27100
C3118       C  0.47611575  0.73994638  0.79377643    -0.25400
N3119       N  0.43789939  0.68359199  0.77293361    -0.82800
H3120       H  0.46998574  0.69755438  0.73888250     0.12900
C3121       C  0.50899347  0.72982445  0.73574275     0.02300
N3122       N  0.50877621  0.76677380  0.77413227    -0.81400
H3123       H  0.47828219  0.75135138  0.80933086     0.17800
C3124       C  0.50299868  0.74101042  0.71433110    -0.26200
C3125       C  0.51872133  0.73721649  0.69473059     0.35800
C3126       C  0.54082611  0.72162152  0.69667105    -0.20300
C3127       C  0.54727503  0.71163393  0.71857372    -0.25500
C3128       C  0.53149480  0.71529140  0.73797461     0.27200
H3129       H  0.48540406  0.75178284  0.71269884     0.12900
N3130       N  0.51145745  0.74796869  0.67274745    -0.82800
H3131       H  0.56410037  0.69974147  0.72040282     0.17800
N3132       N  0.53720292  0.70266650  0.75955053    -0.81400
H3133       H  0.49407651  0.75771027  0.67413498     0.33400
H3134       H  0.52522609  0.76171956  0.66830876     0.37900
H3135       H  0.55380967  0.69167849  0.75805316     0.33400
H3136       H  0.54111155  0.71676306  0.77188276     0.30100
H3137       H  0.50745639  0.77680871  0.78975678     0.33400
H3138       H  0.52742264  0.75972402  0.77318028     0.30100
H3139       H  0.41972973  0.69160923  0.77497567     0.37900
H3140       H  0.43800603  0.67468109  0.75671563     0.33400
C3141       C  0.36324139  0.66599820  0.79750455    -0.20300
C3142       C  0.37127416  0.64919005  0.77990530     0.35900
C3143       C  0.35867267  0.64923121  0.75866641    -0.26300
C3144       C  0.33816883  0.66581774  0.75455625     0.02300
C3145       C  0.32909653  0.68173823  0.77239483     0.27100
C3146       C  0.34169372  0.68154747  0.79394211    -0.25400
N3147       N  0.39222864  0.63200342  0.78355434    -0.82800
H3148       H  0.36516371  0.63642670  0.74510661     0.12900
C3149       C  0.32686980  0.66546674  0.73123075     0.02300
N3150       N  0.30769431  0.69834812  0.76835844    -0.81400
H3151       H  0.33546406  0.69435489  0.80755483     0.17800
C3152       C  0.30326656  0.65316128  0.72801042    -0.26200
C3153       C  0.29662366  0.64350764  0.70612774     0.35800
C3154       C  0.31404809  0.64630540  0.68767840    -0.20300
C3155       C  0.33597912  0.66142695  0.69025243    -0.25500
C3156       C  0.34246849  0.67134080  0.71197608     0.30400
H3157       H  0.29135718  0.64881870  0.74291837     0.12900
N3158       N  0.27366304  0.62866138  0.70305813    -0.82800
H3159       H  0.34916839  0.66349289  0.67583224     0.17800
N3160       N  0.36601141  0.68522920  0.71513870    -0.81400
H3161       H  0.26318060  0.62792699  0.71850279     0.33400
H3162       H  0.26228303  0.63827567  0.69097114     0.37900
H3163       H  0.37556100  0.68748005  0.69931475     0.33400
H3164       H  0.36129442  0.70362372  0.72083746     0.30100
H3165       H  0.30349102  0.70885312  0.78329567     0.33400
H3166       H  0.31313815  0.71162126  0.75565182     0.30100
H3167       H  0.40616705  0.63582625  0.77097821     0.37900
H3168       H  0.38559191  0.61328814  0.78104655     0.33400
C3169       C  0.49753389  0.66738949  0.87121037    -0.20300
C3170       C  0.51892890  0.68349613  0.86678624     0.35900
C3171       C  0.54377238  0.67335963  0.86838871    -0.26300
C3172       C  0.54774561  0.64771217  0.87451274     0.02300
C3173       C  0.52666869  0.63189128  0.87980730     0.27100
C3174       C  0.50179035  0.64189946  0.87820400    -0.25400
N3175       N  0.51547656  0.70960429  0.85942722    -0.82800
H3176       H  0.56015382  0.68526980  0.86410794     0.12900
C3177       C  0.57376975  0.63687707  0.87246659     0.02300
N3178       N  0.53061925  0.60552823  0.88611875    -0.81400
H3179       H  0.48559275  0.62943518  0.88165495     0.17800
C3180       C  0.58931756  0.63419173  0.89212911    -0.26200
C3181       C  0.61409769  0.62369842  0.89036386     0.35800
C3182       C  0.62327125  0.61577070  0.86845764    -0.20300
C3183       C  0.60745407  0.61858989  0.84889720    -0.25500
C3184       C  0.58289870  0.62905218  0.85067229     0.27200
H3185       H  0.58205066  0.64024819  0.90883667     0.12900
N3186       N  0.62975770  0.62091680  0.91066523    -0.82800
H3187       H  0.61438424  0.61289338  0.83196510     0.17800
N3188       N  0.56720725  0.63201883  0.83037707    -0.81400
H3189       H  0.62024818  0.62792345  0.92528606     0.33400
H3190       H  0.63245464  0.60130638  0.91346266     0.37900
H3191       H  0.57691634  0.62575065  0.81558610     0.33400
H3192       H  0.55126302  0.62004101  0.83230803     0.30100
H3193       H  0.51313874  0.59650344  0.88963183     0.33400
H3194       H  0.53844582  0.59617256  0.87176697     0.30100
H3195       H  0.50827771  0.71978011  0.87358602     0.37900
H3196       H  0.53306291  0.71809923  0.85531064     0.33400
C3197       C  0.38432101  0.60898300  0.87779785    -0.20300
C3198       C  0.35913435  0.60480482  0.88624666     0.35900
C3199       C  0.34944291  0.57956924  0.88790402    -0.26300
C3200       C  0.36436245  0.55841943  0.88155126     0.02300
C3201       C  0.39005781  0.56245541  0.87484986     0.27100
C3202       C  0.39968709  0.58759801  0.87291950    -0.25400
N3203       N  0.34283687  0.62613251  0.89158158    -0.82800
H3204       H  0.32969944  0.57646505  0.89297319     0.12900
C3205       C  0.35208322  0.53273273  0.87866655     0.02300
N3206       N  0.40597434  0.54093730  0.86918613    -0.81400
H3207       H  0.41906228  0.59053982  0.86671740     0.17800
C3208       C  0.35181680  0.52202578  0.85643493    -0.26200
C3209       C  0.34058366  0.49806158  0.85218136     0.35800
C3210       C  0.32979581  0.48383589  0.87076380    -0.20300
C3211       C  0.32913389  0.49490691  0.89296964    -0.25500
C3212       C  0.34019990  0.51929147  0.89710208     0.27200
H3213       H  0.36015667  0.53272023  0.84215073     0.12900
N3214       N  0.33963956  0.48836387  0.82885113    -0.82800
H3215       H  0.32050095  0.48431516  0.90716006     0.17800
N3216       N  0.33969888  0.53028957  0.91990686    -0.81400
H3217       H  0.34855701  0.50102865  0.81729039     0.33400
H3218       H  0.32039588  0.48741848  0.82396927     0.37900
H3219       H  0.33022257  0.51806370  0.93149107     0.33400
H3220       H  0.35861121  0.53176087  0.92564669     0.30100
H3221       H  0.42428789  0.54708248  0.86434621     0.33400
H3222       H  0.40813465  0.52999831  0.88426206     0.30100
H3223       H  0.35031073  0.63507157  0.90630640     0.37900
H3224       H  0.32450349  0.61978365  0.89613715     0.33400
C3225       C  0.38355962  0.77153993  0.13476138    -0.20300
C3226       C  0.36281154  0.77351250  0.15045965     0.35900
C3227       C  0.34702443  0.79525353  0.14976835    -0.26300
C3228       C  0.35181990  0.81531830  0.13416647     0.02300
C3229       C  0.37397046  0.81466025  0.12019741     0.27100
C3230       C  0.38965991  0.79272713  0.12062490    -0.25400
N3231       N  0.35744441  0.75317375  0.16664321    -0.82800
H3232       H  0.33015878  0.79605580  0.16070176     0.12900
C3233       C  0.33120272  0.83430123  0.13018116     0.02300
N3234       N  0.38023566  0.83605498  0.10546144    -0.81400
H3235       H  0.40589920  0.79165527  0.10897524     0.17800
C3236       C  0.32820825  0.85543771  0.14498726    -0.26200
C3237       C  0.30617654  0.87106207  0.14375207     0.35800
C3238       C  0.28689050  0.86521421  0.12740733    -0.20300
C3239       C  0.29076000  0.84474779  0.11196408    -0.25500
C3240       C  0.31250843  0.82921191  0.11325339     0.27200
H3241       H  0.34257276  0.85908806  0.15810335     0.12900
N3242       N  0.30295726  0.89205912  0.15955404    -0.82800
H3243       H  0.27627317  0.84028429  0.09915574     0.17800
N3244       N  0.31495924  0.80729068  0.09832206    -0.81400
H3245       H  0.31901080  0.89391737  0.17022090     0.33400
H3246       H  0.28754557  0.88759939  0.17043936     0.37900
H3247       H  0.29902247  0.80558458  0.08749200     0.33400
H3248       H  0.33067660  0.81038045  0.08745452     0.30100
H3249       H  0.39732081  0.83265266  0.09654748     0.33400
H3250       H  0.36596629  0.83777788  0.09290737     0.30100
H3251       H  0.37301813  0.75190402  0.17794442     0.37900
H3252       H  0.34149060  0.75758255  0.17682317     0.33400
C3253       C  0.50402857  0.66385474  0.11078430    -0.20300
C3254       C  0.50605207  0.63758179  0.10505301     0.35900
C3255       C  0.53034190  0.62632581  0.10327441    -0.26300
C3256       C  0.55267531  0.64057372  0.10737548     0.02300
C3257       C  0.55077071  0.66717518  0.11150362     0.27100
C3258       C  0.52645777  0.67860065  0.11280763    -0.25400
N3259       N  0.48345505  0.62222264  0.10174361    -0.82800
H3260       H  0.53188177  0.60603947  0.09956133     0.12900
C3261       C  0.57756180  0.62693902  0.10936808     0.02300
N3262       N  0.57342298  0.68223618  0.11550914    -0.81400
H3263       H  0.52505469  0.69876001  0.11705154     0.17800
C3264       C  0.59839967  0.63432065  0.09548044    -0.26200
C3265       C  0.62264250  0.62296329  0.09822335     0.35800
C3266       C  0.62615036  0.60387429  0.11546095    -0.20300
C3267       C  0.60480947  0.59566047  0.12842867    -0.25500
C3268       C  0.58073426  0.60708326  0.12575316     0.27200
H3269       H  0.59577041  0.64924772  0.08262209     0.12900
N3270       N  0.64367526  0.63123769  0.08392663    -0.82800
H3271       H  0.60706466  0.58092230  0.14151524     0.17800
N3272       N  0.55967587  0.59917323  0.14022063    -0.81400
H3273       H  0.63799700  0.64592739  0.07272120     0.33400
H3274       H  0.64884557  0.61577877  0.07343114     0.37900
H3275       H  0.56509690  0.58421528  0.15123904     0.33400
H3276       H  0.55488400  0.61464184  0.15084932     0.30100
H3277       H  0.56871077  0.70145914  0.11820568     0.33400
H3278       H  0.58176058  0.67569813  0.13088048     0.30100
H3279       H  0.47392020  0.62935089  0.08718560     0.37900
H3280       H  0.48827426  0.60323774  0.09802950     0.33400
C3281       C  0.33287930  0.49242571  0.11354275    -0.20300
C3282       C  0.31969379  0.51539175  0.11853857     0.35900
C3283       C  0.33213676  0.53905253  0.11526837    -0.26300
C3284       C  0.35740310  0.54037028  0.10708270     0.02300
C3285       C  0.37004773  0.51756907  0.10080353     0.27100
C3286       C  0.35776440  0.49382427  0.10432234    -0.25400
N3287       N  0.29425249  0.51468049  0.12806556    -0.82800
H3288       H  0.32252379  0.55654631  0.12030492     0.12900
C3289       C  0.37103297  0.56547416  0.10761122     0.02300
N3290       N  0.39547031  0.51864872  0.09129436    -0.81400
H3291       H  0.36786790  0.47627760  0.10032424     0.17800
C3292       C  0.39329624  0.56778840  0.12098677    -0.26200
C3293       C  0.40495481  0.59172982  0.12472333     0.35800
C3294       C  0.39376097  0.61412236  0.11522189    -0.20300
C3295       C  0.37226794  0.61153332  0.10074589    -0.25500
C3296       C  0.36084151  0.58745704  0.09682437     0.27200
H3297       H  0.40112148  0.55089318  0.12927470     0.12900
N3298       N  0.42776623  0.59332174  0.13857159    -0.82800
H3299       H  0.36372502  0.62845055  0.09312741     0.17800
N3300       N  0.33857822  0.58527377  0.08235601    -0.81400
H3301       H  0.43311657  0.57520825  0.14460305     0.33400
H3302       H  0.44257004  0.59967741  0.12776592     0.37900
H3303       H  0.33335771  0.60320899  0.07581621     0.33400
H3304       H  0.34352856  0.57399038  0.06809191     0.30100
H3305       H  0.40211358  0.50021760  0.08763234     0.33400
H3306       H  0.39442671  0.52836670  0.07545197     0.30100
H3307       H  0.29540000  0.50654087  0.14459621     0.37900
H3308       H  0.28718423  0.53322629  0.13033983     0.33400
C3309       C  0.41012111  0.70980020  0.93174669    -0.20300
C3310       C  0.42527188  0.72821465  0.94332104     0.35900
C3311       C  0.42608634  0.72814719  0.96767607    -0.26300
C3312       C  0.41201255  0.71014679  0.98057510     0.02300
C3313       C  0.39677136  0.69187197  0.96904105     0.27100
C3314       C  0.39574897  0.69206909  0.94472749    -0.25400
N3315       N  0.43947571  0.74706047  0.93034529    -0.82800
H3316       H  0.43761878  0.74224609  0.97669347     0.12900
C3317       C  0.41348073  0.71050779  0.00620258     0.02300
N3318       N  0.38282204  0.67290021  0.98209029    -0.81400
H3319       H  0.38429758  0.67779932  0.93583671     0.17800
C3320       C  0.39136890  0.71566133  0.01911220    -0.26200
C3321       C  0.39174357  0.71540090  0.04348422     0.35800
C3322       C  0.41501895  0.71033416  0.05517784    -0.20300
C3323       C  0.43720218  0.70552349  0.04204779    -0.25500
C3324       C  0.43660185  0.70528160  0.01772190     0.27200
H3325       H  0.37367125  0.71969057  0.01006152     0.12900
N3326       N  0.36869103  0.72072507  0.05620480    -0.82800
H3327       H  0.45504866  0.70136642  0.05079541     0.17800
N3328       N  0.45926295  0.69936525  0.00464426    -0.81400
H3329       H  0.35404790  0.72629200  0.04495488     0.33400
H3330       H  0.36256143  0.70352250  0.06373685     0.37900
H3331       H  0.47471344  0.69602867  0.01572901     0.33400
H3332       H  0.45586584  0.68220169  0.99582731     0.30100
H3333       H  0.37253690  0.66086273  0.97099670     0.33400
H3334       H  0.39619070  0.66137229  0.99059508     0.30100
H3335       H  0.42626950  0.75857576  0.92161780     0.37900
H3336       H  0.44964676  0.75913244  0.94149325     0.33400
C3337       C  0.47980109  0.72518077  0.18659451    -0.20300
C3338       C  0.50382065  0.71442613  0.19185079     0.35900
C3339       C  0.51462706  0.71857077  0.21375072    -0.26300
C3340       C  0.50177398  0.73302174  0.23052168     0.02300
C3341       C  0.47868009  0.74539852  0.22474277     0.27100
C3342       C  0.46800172  0.74160590  0.20256769    -0.25400
N3343       N  0.51647926  0.69827911  0.17525945    -0.82800
H3344       H  0.53234435  0.70910020  0.21833921     0.12900
C3345       C  0.51045167  0.73059270  0.25483278     0.02300
N3346       N  0.46568173  0.76075701  0.24169703    -0.81400
H3347       H  0.44950636  0.74974992  0.19845435     0.17800
C3348       C  0.52835976  0.74784067  0.26407629    -0.26200
C3349       C  0.53991674  0.74313480  0.28579557     0.35800
C3350       C  0.53309501  0.72084115  0.29843801    -0.20300
C3351       C  0.51435594  0.70428023  0.28933752    -0.25500
C3352       C  0.50311053  0.70884103  0.26770540     0.27200
H3353       H  0.53412663  0.76434316  0.25387308     0.12900
N3354       N  0.55922115  0.76027416  0.29447375    -0.82800
H3355       H  0.50885464  0.68722932  0.29890826     0.17800
N3356       N  0.48508685  0.69081881  0.25817784    -0.81400
H3357       H  0.56171098  0.77581817  0.28321120     0.33400
H3358       H  0.57656507  0.75034172  0.29460933     0.37900
H3359       H  0.48222205  0.67541881  0.26952974     0.33400
H3360       H  0.46747839  0.70010202  0.25665663     0.30100
H3361       H  0.44902860  0.76859033  0.23463711     0.33400
H3362       H  0.45984916  0.74866854  0.25519664     0.30100
H3363       H  0.52099284  0.70961100  0.16084238     0.37900
H3364       H  0.53381866  0.69156290  0.18189199     0.33400
C3365       C  0.37846634  0.67328664  0.19464435    -0.20300
C3366       C  0.38872558  0.68032515  0.21638474     0.35900
C3367       C  0.37750782  0.67059757  0.23667611    -0.26300
C3368       C  0.35624955  0.65427948  0.23555665     0.02300
C3369       C  0.34489983  0.64865314  0.21404465     0.27100
C3370       C  0.35598292  0.65851744  0.19369911    -0.25400
N3371       N  0.41092320  0.69664549  0.21770575    -0.82800
H3372       H  0.38595535  0.67485835  0.25338657     0.12900
C3373       C  0.34815145  0.64074354  0.25673047     0.02300
N3374       N  0.32285945  0.63212499  0.21294228    -0.81400
H3375       H  0.34809408  0.65317069  0.17702529     0.17800
C3376       C  0.32760960  0.65003147  0.26983439    -0.26200
C3377       C  0.32001569  0.63757652  0.29038752     0.35800
C3378       C  0.33308354  0.61526444  0.29744950    -0.20300
C3379       C  0.35348936  0.60597476  0.28410296    -0.25500
C3380       C  0.36125928  0.61858611  0.26384811     0.27200
H3381       H  0.31767257  0.66707953  0.26407197     0.12900
N3382       N  0.29864034  0.64693402  0.30356098    -0.82800
H3383       H  0.36361020  0.58894843  0.28968732     0.17800
N3384       N  0.38253960  0.60918571  0.25053883    -0.81400
H3385       H  0.29021400  0.66251925  0.29513053     0.33400
H3386       H  0.30570401  0.65399315  0.31924534     0.37900
H3387       H  0.39036978  0.59292429  0.25838059     0.33400
H3388       H  0.37554162  0.60333664  0.23441910     0.30100
H3389       H  0.31678038  0.63001156  0.19578843     0.33400
H3390       H  0.32840759  0.61393145  0.21861267     0.30100
H3391       H  0.40591207  0.71449538  0.21083787     0.37900
H3392       H  0.41614628  0.69976028  0.23496732     0.33400
loop_ 
_geom_bond_atom_site_label_1 
_geom_bond_atom_site_label_2 
_geom_bond_distance 
_geom_bond_site_symmetry_2 
_ccdc_geom_bond_type 
O1           C16   1.262       .  A
O1           Al9   1.888       .  S
C2           O12   1.259       .  A
C2            O3   1.268       .  A
C2         C3365   1.473       .  S
O3           Al5   1.932       .  S
O4            C6   1.258       .  A
O4           Al5   1.888       .  S
Al5          O13   1.907       .  S
Al5          O15   1.921       .  S
Al5          O14   1.778       .  S
C6           O19   1.265       .  A
C6         C3225   1.490       .  S
O7           C17   1.262       .  A
O7           Al9   1.915       .  S
O8           C21   1.260       .  A
O8          Al18   1.880       .  S
Al9          O22   1.949       .  S
Al9          O19   1.935       .  S
Al9          O14   1.781       .  S
O10          C17   1.261       .  A
O10         Al18   1.909       .  S
O11          C20   1.260       .  A
O11         Al18   1.910       .  S
O12         Al18   1.874       .  S
O13          C20   1.261       .  A
O14         Al18   1.772       .  S
O15          C16   1.265       .  A
C16        C3322   1.486       .  S
C17        C3337   1.473       .  S
C20        C3294   1.491       .  S
C21          O22   1.271       .  A
C21        C3253   1.485       .  S
O23          C38   1.265       .  A
O23         Al31   1.930       .  S
C24          O34   1.264       .  A
C24          O25   1.257       .  A
C24        C3141   1.468       .  S
O25         Al27   1.863       .  S
O26          C28   1.264       .  A
O26         Al27   1.914       .  S
Al27         O35   1.911       .  S
Al27         O37   1.894       .  S
Al27         O36   1.783       .  S
C28          O41   1.262       .  A
C28        C3113   1.479       .  S
O29          C39   1.261       .  A
O29         Al31   1.927       .  S
O30          C43   1.267       .  A
O30         Al40   1.914       .  S
Al31         O44   1.887       .  S
Al31         O41   1.908       .  S
Al31         O36   1.797       .  S
O32          C39   1.253       .  A
O32         Al40   1.881       .  S
O33          C42   1.257       .  A
O33         Al40   1.902       .  S
O34         Al40   1.917       .  S
O35          C42   1.259       .  A
O36         Al40   1.788       .  S
O37          C38   1.261       .  A
C38        C3169   1.489       .  S
C39        C3085   1.495       .  S
C42        C3197   1.494       .  S
C43          O44   1.262       .  A
C43        C3309   1.476       .  S
O45          C60   1.262       .  A
O45         Al53   1.888       .  S
C46          O56   1.259       .  A
C46          O47   1.266       .  A
C46        C3029   1.475       .  S
O47         Al49   1.929       .  S
O48          C50   1.256       .  A
O48         Al49   1.876       .  S
Al49         O57   1.899       .  S
Al49         O59   1.924       .  S
Al49         O58   1.781       .  S
C50          O63   1.266       .  A
C50        C2945   1.495       .  S
O51          C61   1.266       .  A
O51         Al53   1.924       .  S
O52          C65   1.260       .  A
O52         Al62   1.885       .  S
Al53         O66   1.953       .  S
Al53         O63   1.944       .  S
Al53         O58   1.782       .  S
O54          C61   1.264       .  A
O54         Al62   1.915       .  S
O55          C64   1.262       .  A
O55         Al62   1.913       .  S
O56         Al62   1.868       .  S
O57          C64   1.258       .  A
O58         Al62   1.770       .  S
O59          C60   1.266       .  A
C60        C3014   1.473       .  S
C61        C3057   1.487       .  S
C64        C3266   1.492       .  S
C65          O66   1.271       .  A
C65        C2973   1.487       .  S
O67          C82   1.276       .  A
O67         Al75   1.950       .  S
C68          O78   1.268       .  A
C68          O69   1.265       .  A
C68        C2861   1.464       .  S
O69         Al71   1.886       .  S
O70          C72   1.250       .  A
O70         Al71   1.880       .  S
Al71         O79   1.897       .  S
Al71         O81   1.889       .  S
Al71         O80   1.779       .  S
C72          O85   1.257       .  A
C72        C2889   1.475       .  S
O73          C83   1.265       .  A
O73         Al75   1.935       .  S
O74          C87   1.258       .  A
O74         Al84   1.893       .  S
Al75         O88   1.899       .  S
Al75         O85   1.925       .  S
Al75         O80   1.787       .  S
O76          C83   1.255       .  A
O76         Al84   1.868       .  S
O77          C86   1.257       .  A
O77         Al84   1.913       .  S
O78         Al84   1.927       .  S
O79          C86   1.255       .  A
O80         Al84   1.784       .  S
O81          C82   1.269       .  A
C82        C2917   1.488       .  S
C83        C2846   1.492       .  S
C86        C3182   1.485       .  S
C87          O88   1.261       .  A
C87        C3001   1.492       .  S
O89         C104   1.262       .  A
O89         Al97   1.886       .  S
C90         O100   1.258       .  A
C90          O91   1.267       .  A
C90        C2790   1.476       .  S
O91         Al93   1.931       .  S
O92          C94   1.258       .  A
O92         Al93   1.884       .  S
Al93        O101   1.899       .  S
Al93        O103   1.924       .  S
Al93        O102   1.777       .  S
C94         O107   1.268       .  A
C94        C2693   1.501       .  S
O95         C105   1.265       .  A
O95         Al97   1.914       .  S
O96         C109   1.257       .  A
O96        Al106   1.878       .  S
Al97        O110   1.956       .  S
Al97        O107   1.954       .  S
Al97        O102   1.783       .  S
O98         C105   1.265       .  A
O98        Al106   1.917       .  S
O99         C108   1.262       .  A
O99        Al106   1.917       .  S
O100       Al106   1.867       .  S
O101        C108   1.258       .  A
O102       Al106   1.771       .  S
O103        C104   1.267       .  A
C104       C2762   1.478       .  S
C105       C2805   1.480       .  S
C108       C2986   1.494       .  S
C109        O110   1.271       .  A
C109       C2721   1.486       .  S
O111        C126   1.265       .  A
O111       Al119   1.918       .  S
C112        O122   1.263       .  A
C112        O113   1.266       .  A
C112       C2609   1.477       .  S
O113       Al115   1.917       .  S
O114        C116   1.254       .  A
O114       Al115   1.866       .  S
Al115       O123   1.896       .  S
Al115       O125   1.898       .  S
Al115       O124   1.773       .  S
C116        O129   1.264       .  A
C116       C2637   1.485       .  S
O117        C127   1.264       .  A
O117       Al119   1.926       .  S
O118        C131   1.266       .  A
O118       Al128   1.895       .  S
Al119       O132   1.929       .  S
Al119       O129   1.933       .  S
Al119       O124   1.788       .  S
O120        C127   1.259       .  A
O120       Al128   1.896       .  S
O121        C130   1.260       .  A
O121       Al128   1.919       .  S
O122       Al128   1.907       .  S
O123        C130   1.256       .  A
O124       Al128   1.785       .  S
O125        C126   1.260       .  A
C126       C2678   1.493       .  S
C127       C2594   1.488       .  S
C130       C2930   1.483       .  S
C131        O132   1.269       .  A
C131       C2749   1.489       .  S
O133        C148   1.263       .  A
O133       Al141   1.888       .  S
C134        O144   1.259       .  A
C134        O135   1.269       .  A
C134       C2553   1.487       .  S
O135       Al137   1.930       .  S
O136        C138   1.256       .  A
O136       Al137   1.890       .  S
Al137       O145   1.903       .  S
Al137       O147   1.935       .  S
Al137       O146   1.778       .  S
C138        O151   1.264       .  A
C138       C2469   1.490       .  S
O139        C149   1.265       .  A
O139       Al141   1.915       .  S
O140        C153   1.260       .  A
O140       Al150   1.892       .  S
Al141       O154   1.941       .  S
Al141       O151   1.940       .  S
Al141       O146   1.783       .  S
O142        C149   1.263       .  A
O142       Al150   1.909       .  S
O143        C152   1.259       .  A
O143       Al150   1.904       .  S
O144       Al150   1.879       .  S
O145        C152   1.258       .  A
O146       Al150   1.776       .  S
O147        C148   1.269       .  A
C148       C2497   1.486       .  S
C149       C2525   1.476       .  S
C152       C2734   1.492       .  S
C153        O154   1.268       .  A
C153       C3281   1.484       .  S
O155        C170   1.263       .  A
O155       Al163   1.928       .  S
C156        O166   1.264       .  A
C156        O157   1.265       .  A
C156       C2441   1.482       .  S
O157       Al159   1.917       .  S
O158        C160   1.259       .  A
O158       Al159   1.877       .  S
Al159       O167   1.905       .  S
Al159       O169   1.886       .  S
Al159       O168   1.777       .  S
C160        O173   1.267       .  A
C160       C2413   1.497       .  S
O161        C171   1.263       .  A
O161       Al163   1.935       .  S
O162        C175   1.266       .  A
O162       Al172   1.897       .  S
Al163       O176   1.935       .  S
Al163       O173   1.939       .  S
Al163       O168   1.793       .  S
O164        C171   1.258       .  A
O164       Al172   1.892       .  S
O165        C174   1.260       .  A
O165       Al172   1.915       .  S
O166       Al172   1.913       .  S
O167        C174   1.258       .  A
O168       Al172   1.790       .  S
O169        C170   1.257       .  A
C170       C3210   1.490       .  S
C171       C2385   1.497       .  S
C174       C2665   1.485       .  S
C175        O176   1.271       .  A
C175       C2510   1.498       .  S
O177        C192   1.264       .  A
O177       Al185   1.901       .  S
C178        O188   1.260       .  A
C178        O179   1.266       .  A
C178       C2777   1.479       .  S
O179       Al181   1.920       .  S
O180        C182   1.256       .  A
O180       Al181   1.874       .  S
Al181       O189   1.891       .  S
Al181       O191   1.913       .  S
Al181       O190   1.778       .  S
C182        O195   1.267       .  A
C182       C2273   1.494       .  S
O183        C193   1.264       .  A
O183       Al185   1.922       .  S
O184        C197   1.261       .  A
O184       Al194   1.885       .  S
Al185       O198   1.954       .  S
Al185       O195   1.948       .  S
Al185       O190   1.781       .  S
O186        C193   1.262       .  A
O186       Al194   1.913       .  S
O187        C196   1.260       .  A
O187       Al194   1.915       .  S
O188       Al194   1.877       .  S
O189        C196   1.257       .  A
O190       Al194   1.774       .  S
O191        C192   1.264       .  A
C192       C2357   1.489       .  S
C193       C3070   1.479       .  S
C196       C2329   1.485       .  S
C197        O198   1.271       .  A
C197       C2301   1.486       .  S
O199        C214   1.266       .  A
O199       Al207   1.928       .  S
C200        O210   1.263       .  A
C200        O201   1.260       .  A
C200       C2622   1.481       .  S
O201       Al203   1.895       .  S
O202        C204   1.259       .  A
O202       Al203   1.894       .  S
Al203       O211   1.902       .  S
Al203       O213   1.886       .  S
Al203       O212   1.776       .  S
C204        O217   1.260       .  A
C204       C2902   1.471       .  S
O205        C215   1.266       .  A
O205       Al207   1.930       .  S
O206        C219   1.263       .  A
O206       Al216   1.908       .  S
Al207       O220   1.906       .  S
Al207       O217   1.914       .  S
Al207       O212   1.793       .  S
O208        C215   1.261       .  A
O208       Al216   1.893       .  S
O209        C218   1.260       .  A
O209       Al216   1.911       .  S
O210       Al216   1.923       .  S
O211        C218   1.261       .  A
O212       Al216   1.787       .  S
O213        C214   1.259       .  A
C214       C2217   1.491       .  S
C215       C2189   1.496       .  S
C218       C2258   1.490       .  S
C219        O220   1.262       .  A
C219       C2370   1.478       .  S
O221        C236   1.262       .  A
O221       Al229   1.887       .  S
C222        O232   1.260       .  A
C222        O223   1.269       .  A
C222       C3042   1.477       .  S
O223       Al225   1.932       .  S
O224        C226   1.253       .  A
O224       Al225   1.876       .  S
Al225       O233   1.901       .  S
Al225       O235   1.922       .  S
Al225       O234   1.778       .  S
C226        O239   1.262       .  A
C226       C2118   1.483       .  S
O227        C237   1.264       .  A
O227       Al229   1.920       .  S
O228        C241   1.264       .  A
O228       Al238   1.887       .  S
Al229       O242   1.938       .  S
Al229       O239   1.929       .  S
Al229       O234   1.785       .  S
O230        C237   1.262       .  A
O230       Al238   1.912       .  S
O231        C240   1.259       .  A
O231       Al238   1.915       .  S
O232       Al238   1.866       .  S
O233        C240   1.255       .  A
O234       Al238   1.775       .  S
O235        C236   1.268       .  A
C236       C2161   1.492       .  S
C237       C3350   1.488       .  S
C240       C2314   1.496       .  S
C241        O242   1.269       .  A
C241       C2133   1.481       .  S
O243        C258   1.262       .  A
O243       Al251   1.918       .  S
C244        O254   1.261       .  A
C244        O245   1.260       .  A
C244       C2874   1.475       .  S
O245       Al247   1.897       .  S
O246        C248   1.262       .  A
O246       Al247   1.891       .  S
Al247       O255   1.905       .  S
Al247       O257   1.894       .  S
Al247       O256   1.779       .  S
C248        O261   1.265       .  A
C248       C3126   1.494       .  S
O249        C259   1.263       .  A
O249       Al251   1.917       .  S
O250        C263   1.261       .  A
O250       Al260   1.895       .  S
Al251       O264   1.922       .  S
Al251       O261   1.933       .  S
Al251       O256   1.790       .  S
O252        C259   1.261       .  A
O252       Al260   1.901       .  S
O253        C262   1.263       .  A
O253       Al260   1.911       .  S
O254       Al260   1.909       .  S
O255        C262   1.262       .  A
O256       Al260   1.783       .  S
O257        C258   1.259       .  A
C258       C2090   1.475       .  S
C259       C2049   1.482       .  S
C262       C2230   1.491       .  S
C263        O264   1.266       .  A
C263       C2174   1.490       .  S
O265        C280   1.259       .  A
O265       Al273   1.872       .  S
C266        O276   1.261       .  A
C266        O267   1.267       .  A
C266       C3378   1.469       .  S
O267       Al269   1.926       .  S
O268        C270   1.256       .  A
O268       Al269   1.877       .  S
Al269       O277   1.893       .  S
Al269       O279   1.926       .  S
Al269       O278   1.777       .  S
C270        O283   1.267       .  A
C270       C1978   1.499       .  S
O271        C281   1.262       .  A
O271       Al273   1.904       .  S
O272        C285   1.260       .  A
O272       Al282   1.882       .  S
Al273       O286   1.958       .  S
Al273       O283   1.949       .  S
Al273       O278   1.783       .  S
O274        C281   1.264       .  A
O274       Al282   1.917       .  S
O275        C284   1.259       .  A
O275       Al282   1.911       .  S
O276       Al282   1.875       .  S
O277        C284   1.257       .  A
O278       Al282   1.774       .  S
O279        C280   1.267       .  A
C280       C2021   1.480       .  S
C281       C2538   1.477       .  S
C284       C2146   1.486       .  S
C285        O286   1.272       .  A
C285       C1993   1.489       .  S
O287        C302   1.265       .  A
O287       Al295   1.923       .  S
C288        O298   1.258       .  A
C288        O289   1.264       .  A
C288       C3154   1.455       .  S
O289       Al291   1.913       .  S
O290        C292   1.260       .  A
O290       Al291   1.891       .  S
Al291       O299   1.907       .  S
Al291       O301   1.904       .  S
Al291       O300   1.775       .  S
C292        O305   1.268       .  A
C292       C2426   1.491       .  S
O293        C303   1.264       .  A
O293       Al295   1.932       .  S
O294        C307   1.259       .  A
O294       Al304   1.867       .  S
Al295       O308   1.942       .  S
Al295       O305   1.937       .  S
Al295       O300   1.782       .  S
O296        C303   1.257       .  A
O296       Al304   1.892       .  S
O297        C306   1.260       .  A
O297       Al304   1.910       .  S
O298       Al304   1.890       .  S
O299        C306   1.262       .  A
O300       Al304   1.783       .  S
O301        C302   1.261       .  A
C302       C1950   1.490       .  S
C303       C1909   1.487       .  S
C306       C2077   1.487       .  S
C307        O308   1.272       .  A
C307       C2034   1.483       .  S
O309        C324   1.261       .  A
O309       Al317   1.879       .  S
C310        O320   1.260       .  A
C310        O311   1.267       .  A
C310       C2566   1.484       .  S
O311       Al313   1.931       .  S
O312        C314   1.255       .  A
O312       Al313   1.879       .  S
Al313       O321   1.894       .  S
Al313       O323   1.932       .  S
Al313       O322   1.773       .  S
C314        O327   1.265       .  A
C314       C1853   1.481       .  S
O315        C325   1.264       .  A
O315       Al317   1.907       .  S
O316        C329   1.260       .  A
O316       Al326   1.886       .  S
Al317       O330   1.938       .  S
Al317       O327   1.944       .  S
Al317       O322   1.782       .  S
O318        C325   1.267       .  A
O318       Al326   1.928       .  S
O319        C328   1.265       .  A
O319       Al326   1.927       .  S
O320       Al326   1.877       .  S
O321        C328   1.257       .  A
O322       Al326   1.770       .  S
O323        C324   1.269       .  A
C324       C1894   1.479       .  S
C325       C2818   1.476       .  S
C328       C2006   1.495       .  S
C329        O330   1.268       .  A
C329       C2342   1.478       .  S
O331        C346   1.264       .  A
O331       Al339   1.917       .  S
C332        O342   1.263       .  A
C332        O333   1.264       .  A
C332       C2454   1.468       .  S
O333       Al335   1.907       .  S
O334        C336   1.259       .  A
O334       Al335   1.887       .  S
Al335       O343   1.911       .  S
Al335       O345   1.896       .  S
Al335       O344   1.779       .  S
C336        O349   1.262       .  A
C336       C2650   1.490       .  S
O337        C347   1.264       .  A
O337       Al339   1.930       .  S
O338        C351   1.264       .  A
O338       Al348   1.893       .  S
Al339       O352   1.922       .  S
Al339       O349   1.920       .  S
Al339       O344   1.789       .  S
O340        C347   1.261       .  A
O340       Al348   1.908       .  S
O341        C350   1.260       .  A
O341       Al348   1.917       .  S
O342       Al348   1.906       .  S
O343        C350   1.260       .  A
O344       Al348   1.789       .  S
O345        C346   1.259       .  A
C346       C2245   1.484       .  S
C347       C1838   1.500       .  S
C350       C1937   1.497       .  S
C351        O352   1.268       .  A
C351       C1881   1.485       .  S
O353        C368   1.260       .  A
O353       Al361   1.890       .  S
C354        O364   1.260       .  A
C354        O355   1.261       .  A
C354       C1810   1.466       .  S
O355       Al357   1.915       .  S
O356        C358   1.258       .  A
O356       Al357   1.886       .  S
Al357       O365   1.911       .  S
Al357       O367   1.915       .  S
Al357       O366   1.787       .  S
C358        O371   1.266       .  A
C358       C2202   1.487       .  S
O359        C369   1.261       .  A
O359       Al361   1.909       .  S
O360        C373   1.262       .  A
O360       Al370   1.903       .  S
Al361       O374   1.935       .  S
Al361       O371   1.943       .  S
Al361       O366   1.789       .  S
O362        C369   1.262       .  A
O362       Al370   1.909       .  S
O363        C372   1.263       .  A
O363       Al370   1.912       .  S
O364       Al370   1.892       .  S
O365        C372   1.262       .  A
O366       Al370   1.775       .  S
O367        C368   1.263       .  A
C368       C1741   1.475       .  S
C369       C1782   1.473       .  S
C372       C1726   1.494       .  S
C373        O374   1.267       .  A
C373       C1685   1.488   1_655  S
O375        C390   1.262       .  A
O375       Al383   1.914       .  S
C376        O386   1.260       .  A
C376        O377   1.266       .  A
C376       C1573   1.465       .  S
O377       Al379   1.924       .  S
O378        C380   1.258       .  A
O378       Al379   1.877       .  S
Al379       O387   1.894       .  S
Al379       O389   1.911       .  S
Al379       O388   1.773       .  S
C380        O393   1.268       .  A
C380       C1601   1.492       .  S
O381        C391   1.265       .  A
O381       Al383   1.933       .  S
O382        C395   1.265       .  A
O382       Al392   1.886       .  S
Al383       O396   1.935       .  S
Al383       O393   1.945       .  S
Al383       O388   1.783       .  S
O384        C391   1.258       .  A
O384       Al392   1.894       .  S
O385        C394   1.262       .  A
O385       Al392   1.925       .  S
O386       Al392   1.897       .  S
O387        C394   1.258       .  A
O388       Al392   1.782       .  S
O389        C390   1.263       .  A
C390       C1629   1.500       .  S
C391       C2286   1.490       .  S
C394       C1657   1.485       .  S
C395        O396   1.270       .  A
C395       C1754   1.489       .  S
O397        C412   1.263       .  A
O397       Al405   1.892       .  S
C398        O408   1.263       .  A
C398        O399   1.270       .  A
C398       C1545   1.488       .  S
O399       Al401   1.938       .  S
O400        C402   1.255       .  A
O400       Al401   1.881       .  S
Al401       O409   1.909       .  S
Al401       O411   1.930       .  S
Al401       O410   1.776       .  S
C402        O415   1.262       .  A
C402       C1922   1.478       .  S
O403        C413   1.264       .  A
O403       Al405   1.926       .  S
O404        C417   1.263       .  A
O404       Al414   1.890       .  S
Al405       O418   1.941       .  S
Al405       O415   1.933       .  S
Al405       O410   1.785       .  S
O406        C413   1.261       .  A
O406       Al414   1.910       .  S
O407        C416   1.258       .  A
O407       Al414   1.909       .  S
O408       Al414   1.880       .  S
O409        C416   1.259       .  A
O410       Al414   1.774       .  S
O411        C412   1.269       .  A
C412       C1489   1.490       .  S
C413       C1517   1.482       .  S
C416       C1461   1.496       .  S
C417        O418   1.270       .  A
C417       C1433   1.481   1_455  S
O419        C434   1.264       .  A
O419       Al427   1.908       .  S
C420        O430   1.261       .  A
C420        O421   1.265       .  A
C420       C1362   1.467       .  S
O421       Al423   1.911       .  S
O422        C424   1.253       .  A
O422       Al423   1.876       .  S
Al423       O431   1.889       .  S
Al423       O433   1.915       .  S
Al423       O432   1.774       .  S
C424        O437   1.263       .  A
C424       C1334   1.491       .  S
O425        C435   1.265       .  A
O425       Al427   1.926       .  S
O426        C439   1.266       .  A
O426       Al436   1.901       .  S
Al427       O440   1.931       .  S
Al427       O437   1.933       .  S
Al427       O432   1.785       .  S
O428        C435   1.263       .  A
O428       Al436   1.916       .  S
O429        C438   1.263       .  A
O429       Al436   1.932       .  S
O430       Al436   1.901       .  S
O431        C438   1.256       .  A
O432       Al436   1.786       .  S
O433        C434   1.265       .  A
C434       C1390   1.496       .  S
C435       C1965   1.485       .  S
C438       C1405   1.495       .  S
C439        O440   1.268       .  A
C439       C1502   1.495       .  S
O441        C456   1.263       .  A
O441       Al449   1.892       .  S
C442        O452   1.257       .  A
C442        O443   1.263       .  A
C442       C1265   1.471       .  S
O443       Al445   1.923       .  S
O444        C446   1.256       .  A
O444       Al445   1.889       .  S
Al445       O453   1.903       .  S
Al445       O455   1.928       .  S
Al445       O454   1.783       .  S
C446        O459   1.262       .  A
C446       C2062   1.476       .  S
O447        C457   1.266       .  A
O447       Al449   1.911       .  S
O448        C461   1.258       .  A
O448       Al458   1.895       .  S
Al449       O462   1.932       .  S
Al449       O459   1.934       .  S
Al449       O454   1.790       .  S
O450        C457   1.266       .  A
O450       Al458   1.916       .  S
O451        C460   1.261       .  A
O451       Al458   1.903       .  S
O452       Al458   1.870       .  S
O453        C460   1.259       .  A
O454       Al458   1.773       .  S
O455        C456   1.269       .  A
C456       C1237   1.490       .  S
C457       C1293   1.479       .  S
C460       C1446   1.489       .  S
C461        O462   1.264       .  A
C461       C1713   1.483       .  S
O463        C478   1.261       .  A
O463       Al471   1.908       .  S
C464        O474   1.263       .  A
C464        O465   1.266       .  A
C464       C1181   1.471       .  S
O465       Al467   1.917       .  S
O466        C468   1.258       .  A
O466       Al467   1.884       .  S
Al467       O475   1.900       .  S
Al467       O477   1.899       .  S
Al467       O476   1.776       .  S
C468        O481   1.267       .  A
C468       C1222   1.495       .  S
O469        C479   1.263       .  A
O469       Al471   1.923       .  S
O470        C483   1.264       .  A
O470       Al480   1.888       .  S
Al471       O484   1.935       .  S
Al471       O481   1.934       .  S
Al471       O476   1.787       .  S
O472        C479   1.259       .  A
O472       Al480   1.901       .  S
O473        C482   1.262       .  A
O473       Al480   1.925       .  S
O474       Al480   1.903       .  S
O475        C482   1.258       .  A
O476       Al480   1.783       .  S
O477        C478   1.261       .  A
C478       C1670   1.493       .  S
C479       C2105   1.491       .  S
C482       C1377   1.491       .  S
C483        O484   1.271       .  A
C483       C1250   1.491       .  S
O485        C500   1.263       .  A
O485       Al493   1.901       .  S
C486        O496   1.261       .  A
C486        O487   1.266       .  A
C486       C1166   1.471       .  S
O487       Al489   1.924       .  S
O488        C490   1.257       .  A
O488       Al489   1.880       .  S
Al489       O497   1.904       .  S
Al489       O499   1.913       .  S
Al489       O498   1.780       .  S
C490        O503   1.267       .  A
C490       C1825   1.498       .  S
O491        C501   1.262       .  A
O491       Al493   1.918       .  S
O492        C505   1.264       .  A
O492       Al502   1.892       .  S
Al493       O506   1.953       .  S
Al493       O503   1.947       .  S
Al493       O498   1.787       .  S
O494        C501   1.261       .  A
O494       Al502   1.909       .  S
O495        C504   1.261       .  A
O495       Al502   1.920       .  S
O496       Al502   1.890       .  S
O497        C504   1.259       .  A
O498       Al502   1.777       .  S
O499        C500   1.263       .  A
C500       C1097   1.495       .  S
C501       C1138   1.479       .  S
C504       C1698   1.493       .  S
C505        O506   1.272       .  A
C505       C1474   1.494   1_545  S
O507        C522   1.264       .  A
O507       Al515   1.929       .  S
C508        O518   1.264       .  A
C508        O509   1.263       .  A
C508       C1069   1.469       .  S
O509       Al511   1.899       .  S
O510        C512   1.260       .  A
O510       Al511   1.888       .  S
Al511       O519   1.912       .  S
Al511       O521   1.883       .  S
Al511       O520   1.779       .  S
C512        O525   1.267       .  A
C512       C1054   1.493       .  S
O513        C523   1.264       .  A
O513       Al515   1.935       .  S
O514        C527   1.266       .  A
O514       Al524   1.892       .  S
Al515       O528   1.932       .  S
Al515       O525   1.934       .  S
Al515       O520   1.790       .  S
O516        C523   1.256       .  A
O516       Al524   1.891       .  S
O517        C526   1.261       .  A
O517       Al524   1.916       .  S
O518       Al524   1.909       .  S
O519        C526   1.261       .  A
O520       Al524   1.785       .  S
O521        C522   1.257       .  A
C522       C1418   1.495   1_545  S
C523       C1866   1.498       .  S
C526       C1642   1.492       .  S
C527        O528   1.270       .  A
C527       C1110   1.483       .  S
O529        C544   1.263       .  A
O529       Al537   1.919       .  S
C530        O540   1.263       .  A
C530        O531   1.263       .  A
C530       C1586   1.472       .  S
O531       Al533   1.905       .  S
O532        C534   1.261       .  A
O532       Al533   1.888       .  S
Al533       O541   1.899       .  S
Al533       O543   1.888       .  S
Al533       O542   1.775       .  S
C534        O547   1.266       .  A
C534       C1209   1.498       .  S
O535        C545   1.264       .  A
O535       Al537   1.929       .  S
O536        C549   1.264       .  A
O536       Al546   1.897       .  S
Al537       O550   1.935       .  S
Al537       O547   1.937       .  S
Al537       O542   1.785       .  S
O538        C545   1.261       .  A
O538       Al546   1.912       .  S
O539        C548   1.264       .  A
O539       Al546   1.934       .  S
O540       Al546   1.909       .  S
O541        C548   1.259       .  A
O542       Al546   1.782       .  S
O543        C544   1.259       .  A
C544        C957   1.492       .  S
C545       C2706   1.492       .  S
C548        C985   1.488       .  S
C549        O550   1.270       .  A
C549       C1026   1.485       .  S
O551        C566   1.262       .  A
O551       Al559   1.905       .  S
C552        O562   1.257       .  A
C552        O553   1.263       .  A
C552       C1797   1.460       .  S
O553       Al555   1.926       .  S
O554        C556   1.257       .  A
O554       Al555   1.876       .  S
Al555       O563   1.895       .  S
Al555       O565   1.915       .  S
Al555       O564   1.781       .  S
C556        O569   1.269       .  A
C556       C2581   1.491       .  S
O557        C567   1.262       .  A
O557       Al559   1.913       .  S
O558        C571   1.260       .  A
O558       Al568   1.886       .  S
Al559       O572   1.945       .  S
Al559       O569   1.947       .  S
Al559       O564   1.786       .  S
O560        C567   1.261       .  A
O560       Al568   1.908       .  S
O561        C570   1.264       .  A
O561       Al568   1.921       .  S
O562       Al568   1.881       .  S
O563        C570   1.258       .  A
O564       Al568   1.776       .  S
O565        C566   1.264       .  A
C566       C1013   1.497       .  S
C567       C1306   1.473       .  S
C570        C929   1.489       .  S
C571        O572   1.269       .  A
C571        C901   1.485   1_545  S
O573        C588   1.265       .  A
O573       Al581   1.920       .  S
C574        O584   1.264       .  A
C574        O575   1.263       .  A
C574       C1194   1.470       .  S
O575       Al577   1.902       .  S
O576        C578   1.262       .  A
O576       Al577   1.896       .  S
Al577       O585   1.910       .  S
Al577       O587   1.889       .  S
Al577       O586   1.774       .  S
C578        O591   1.263       .  A
C578       C1321   1.492       .  S
O579        C589   1.265       .  A
O579       Al581   1.927       .  S
O580        C593   1.263       .  A
O580       Al590   1.896       .  S
Al581       O594   1.923       .  S
Al581       O591   1.918       .  S
Al581       O586   1.785       .  S
O582        C589   1.258       .  A
O582       Al590   1.893       .  S
O583        C592   1.260       .  A
O583       Al590   1.909       .  S
O584       Al590   1.915       .  S
O585        C592   1.261       .  A
O586       Al590   1.780       .  S
O587        C588   1.258       .  A
C588        C845   1.493       .  S
C589       C2958   1.486       .  S
C592        C970   1.487       .  S
C593        O594   1.266       .  A
C593        C873   1.469       .  S
O595        C610   1.261       .  A
O595       Al603   1.879       .  S
C596        O606   1.262       .  A
C596        O597   1.267       .  A
C596       C1278   1.478       .  S
O597       Al599   1.928       .  S
O598        C600   1.255       .  A
O598       Al599   1.889       .  S
Al599       O607   1.909       .  S
Al599       O609   1.925       .  S
Al599       O608   1.783       .  S
C600        O613   1.260       .  A
C600       C2833   1.477       .  S
O601        C611   1.262       .  A
O601       Al603   1.915       .  S
O602        C615   1.264       .  A
O602       Al612   1.900       .  S
Al603       O616   1.939       .  S
Al603       O613   1.926       .  S
Al603       O608   1.786       .  S
O604        C611   1.262       .  A
O604       Al612   1.912       .  S
O605        C614   1.260       .  A
O605       Al612   1.909       .  S
O606       Al612   1.881       .  S
O607        C614   1.259       .  A
O608       Al612   1.776       .  S
O609        C610   1.268       .  A
C610        C886   1.479       .  S
C611       C1530   1.477       .  S
C614        C914   1.497       .  S
C615        O616   1.269       .  A
C615        C817   1.487       .  S
O617        C632   1.263       .  A
O617       Al625   1.916       .  S
C618        O628   1.266       .  A
C618        O619   1.267       .  A
C618       C1349   1.482       .  S
O619       Al621   1.913       .  S
O620        C622   1.256       .  A
O620       Al621   1.872       .  S
Al621       O629   1.895       .  S
Al621       O631   1.888       .  S
Al621       O630   1.777       .  S
C622        O635   1.264       .  A
C622       C1041   1.496       .  S
O623        C633   1.262       .  A
O623       Al625   1.927       .  S
O624        C637   1.268       .  A
O624       Al634   1.906       .  S
Al625       O638   1.934       .  S
Al625       O635   1.935       .  S
Al625       O630   1.790       .  S
O626        C633   1.257       .  A
O626       Al634   1.893       .  S
O627        C636   1.258       .  A
O627       Al634   1.917       .  S
O628       Al634   1.911       .  S
O629        C636   1.255       .  A
O630       Al634   1.789       .  S
O631        C632   1.259       .  A
C632        C761   1.495       .  S
C633       C3238   1.489       .  S
C636        C858   1.485       .  S
C637        O638   1.272       .  A
C637        C789   1.492       .  S
O639        C654   1.262       .  A
O639       Al647   1.892       .  S
C640        O650   1.261       .  A
C640        O641   1.268       .  A
C640       C1558   1.491       .  S
O641       Al643   1.935       .  S
O642        C644   1.257       .  A
O642       Al643   1.891       .  S
Al643       O651   1.910       .  S
Al643       O653   1.936       .  S
Al643       O652   1.782       .  S
C644        O657   1.264       .  A
C644       C3098   1.480       .  S
O645        C655   1.263       .  A
O645       Al647   1.917       .  S
O646        C659   1.262       .  A
O646       Al656   1.892       .  S
Al647       O660   1.948       .  S
Al647       O657   1.936       .  S
Al647       O652   1.787       .  S
O648        C655   1.263       .  A
O648       Al656   1.917       .  S
O649        C658   1.261       .  A
O649       Al656   1.910       .  S
O650       Al656   1.886       .  S
O651        C658   1.261       .  A
O652       Al656   1.776       .  S
O653        C654   1.269       .  A
C654        C802   1.493       .  S
C655       C1125   1.481       .  S
C658        C830   1.497       .  S
C659        O660   1.269       .  A
C659        C733   1.492       .  S
O661        C676   1.263       .  A
O661       Al669   1.913       .  S
C662        O672   1.262       .  A
C662        O663   1.266       .  A
C662       C1082   1.463       .  S
O663       Al665   1.912       .  S
O664        C666   1.260       .  A
O664       Al665   1.896       .  S
Al665       O673   1.904       .  S
Al665       O675   1.899       .  S
Al665       O674   1.776       .  S
C666        O679   1.264       .  A
C666       C1614   1.497       .  S
O667        C677   1.265       .  A
O667       Al669   1.933       .  S
O668        C681   1.262       .  A
O668       Al678   1.884       .  S
Al669       O682   1.927       .  S
Al669       O679   1.922       .  S
Al669       O674   1.786       .  S
O670        C677   1.261       .  A
O670       Al678   1.908       .  S
O671        C680   1.259       .  A
O671       Al678   1.919       .  S
O672       Al678   1.894       .  S
O673        C680   1.257       .  A
O674       Al678   1.784       .  S
O675        C676   1.262       .  A
C676        C998   1.495       .  S
C677       C2482   1.503       .  S
C680        C774   1.487       .  S
C681        O682   1.269       .  A
C681        C718   1.488       .  S
O683        C698   1.259       .  A
O683       Al691   1.888       .  S
C684        O694   1.259       .  A
C684        O685   1.263       .  A
C684       C1153   1.464       .  S
O685       Al687   1.921       .  S
O686        C688   1.258       .  A
O686       Al687   1.887       .  S
Al687       O695   1.914       .  S
Al687       O697   1.914       .  S
Al687       O696   1.785       .  S
C688        O701   1.265       .  A
C688       C2398   1.493       .  S
O689        C699   1.261       .  A
O689       Al691   1.907       .  S
O690        C703   1.260       .  A
O690       Al700   1.886       .  S
Al691       O704   1.937       .  S
Al691       O701   1.936       .  S
Al691       O696   1.793       .  S
O692        C699   1.262       .  A
O692       Al700   1.912       .  S
O693        C702   1.260       .  A
O693       Al700   1.907       .  S
O694       Al700   1.884       .  S
O695        C702   1.262       .  A
O696       Al700   1.776       .  S
O697        C698   1.265       .  A
C698        C705   1.484       .  S
C699       C1769   1.479       .  S
C702        C746   1.496       .  S
C703        O704   1.267       .  A
C703        C942   1.484       .  S
C705        C706   1.418       .  A
C705        C710   1.405       .  A
C706        C707   1.407       .  A
C706        N711   1.438       .  S
C707        C708   1.401       .  A
C707        H712   1.084       .  S
C708        C713   1.480   1_556  S
C708        C709   1.408       .  A
C709        C710   1.401       .  A
C709        N714   1.438       .  S
C710        H715   1.084       .  S
N711        H731   1.045       .  S
N711        H732   1.046       .  S
C713        C716   1.400       .  A
C713        C720   1.407       .  A
N714        H729   1.046       .  S
N714        H730   1.046       .  S
C716        C717   1.402       .  A
C716        H721   1.084       .  S
C717        C718   1.419       .  A
C717        N722   1.438       .  S
C718        C719   1.409       .  A
C719        C720   1.405       .  A
C719        H723   1.083       .  S
C720        N724   1.438       .  S
N722        H725   1.046       .  S
N722        H726   1.046       .  S
N724        H727   1.046       .  S
N724        H728   1.046       .  S
C733        C734   1.416   1_565  A
C733        C738   1.407       .  A
C734        C735   1.411       .  A
C734        N739   1.438       .  S
C735        C736   1.405       .  A
C735        H740   1.083       .  S
C736        C741   1.494       .  S
C736        C737   1.411       .  A
C737        C738   1.408   1_545  A
C737        N742   1.438       .  S
C738        H743   1.084       .  S
N739        H759   1.045       .  S
N739        H760   1.046       .  S
C741        C744   1.402       .  A
C741        C748   1.412       .  A
N742        H757   1.046   1_545  S
N742        H758   1.046       .  S
C744        C745   1.403       .  A
C744        H749   1.084       .  S
C745        C746   1.416       .  A
C745        N750   1.433       .  S
C746        C747   1.409       .  A
C747        C748   1.413       .  A
C747        H751   1.083       .  S
C748        N752   1.437       .  S
N750        H753   1.046       .  S
N750        H754   1.046       .  S
N752        H755   1.046       .  S
N752        H756   1.046       .  S
C761        C762   1.416       .  A
C761        C766   1.408       .  A
C762        C763   1.412   1_565  A
C762        N767   1.437       .  S
C763        C764   1.407       .  A
C763        H768   1.083       .  S
C764        C769   1.494       .  S
C764        C765   1.411       .  A
C765        C766   1.402   1_545  A
C765        N770   1.439       .  S
C766        H771   1.083       .  S
N767        H787   1.046       .  S
N767        H788   1.046   1_565  S
C769        C772   1.406       .  A
C769        C776   1.413       .  A
N770        H785   1.046       .  S
N770        H786   1.046       .  S
C772        C773   1.409       .  A
C772        H777   1.083       .  S
C773        C774   1.412       .  A
C773        N778   1.438       .  S
C774        C775   1.406       .  A
C775        C776   1.407       .  A
C775        H779   1.083       .  S
C776        N780   1.438       .  S
N778        H781   1.046       .  S
N778        H782   1.046       .  S
N780        H783   1.046       .  S
N780        H784   1.046       .  S
C789        C790   1.417       .  A
C789        C794   1.409       .  A
C790        C791   1.410       .  A
C790        N795   1.438       .  S
C791        C792   1.402       .  A
C791        H796   1.084       .  S
C792        C797   1.485   1_554  S
C792        C793   1.407       .  A
C793        C794   1.407       .  A
C793        N798   1.437       .  S
C794        H799   1.084       .  S
N795        H815   1.045       .  S
N795        H816   1.046       .  S
C797        C800   1.400       .  A
C797        C804   1.408       .  A
N798        H813   1.046       .  S
N798        H814   1.046       .  S
C800        C801   1.408       .  A
C800        H805   1.084       .  S
C801        C802   1.419       .  A
C801        N806   1.438       .  S
C802        C803   1.408       .  A
C803        C804   1.409       .  A
C803        H807   1.083       .  S
C804        N808   1.437       .  S
N806        H809   1.046       .  S
N806        H810   1.046       .  S
N808        H811   1.046       .  S
N808        H812   1.046       .  S
C817        C818   1.413   1_655  A
C817        C822   1.405   1_655  A
C818        C819   1.409       .  A
C818        N823   1.438   1_455  S
C819        C820   1.405       .  A
C819        H824   1.084       .  S
C820        C825   1.490       .  S
C820        C821   1.411       .  A
C821        C822   1.406       .  A
C821        N826   1.438       .  S
C822        H827   1.083       .  S
N823        H843   1.046       .  S
N823        H844   1.046       .  S
C825        C828   1.404       .  A
C825        C832   1.409       .  A
N826        H841   1.046       .  S
N826        H842   1.046       .  S
C828        C829   1.412       .  A
C828        H833   1.084       .  S
C829        C830   1.418       .  A
C829        N834   1.437       .  S
C830        C831   1.409       .  A
C831        C832   1.404       .  A
C831        H835   1.083       .  S
C832        N836   1.439       .  S
N834        H837   1.046       .  S
N834        H838   1.046       .  S
N836        H839   1.046       .  S
N836        H840   1.046       .  S
C845        C846   1.423   1_655  A
C845        C850   1.408   1_655  A
C846        C847   1.402       .  A
C846        N851   1.439   1_455  S
C847        C848   1.398       .  A
C847        H852   1.084       .  S
C848        C853   1.484       .  S
C848        C849   1.409       .  A
C849        C850   1.409       .  A
C849        N854   1.437       .  S
C850        H855   1.083       .  S
N851        H871   1.045       .  S
N851        H872   1.046   1_655  S
C853        C856   1.401       .  A
C853        C860   1.409       .  A
N854        H869   1.046       .  S
N854        H870   1.046       .  S
C856        C857   1.407       .  A
C856        H861   1.084       .  S
C857        C858   1.417       .  A
C857        N862   1.438       .  S
C858        C859   1.405       .  A
C859        C860   1.405       .  A
C859        H863   1.084       .  S
C860        N864   1.438       .  S
N862        H865   1.046       .  S
N862        H866   1.046       .  S
N864        H867   1.046       .  S
N864        H868   1.046       .  S
C873        C874   1.409       .  A
C873        C878   1.401       .  A
C874        C875   1.406       .  A
C874        N879   1.438       .  S
C875        C876   1.404       .  A
C875        H880   1.084       .  S
C876        C881   1.482   1_554  S
C876        C877   1.410       .  A
C877        C878   1.403       .  A
C877        N882   1.438       .  S
C878        H883   1.083       .  S
N879        H899   1.045       .  S
N879        H900   1.046       .  S
C881        C884   1.401       .  A
C881        C888   1.410       .  A
N882        H897   1.046       .  S
N882        H898   1.046       .  S
C884        C885   1.404       .  A
C884        H889   1.084       .  S
C885        C886   1.414       .  A
C885        N890   1.438       .  S
C886        C887   1.404       .  A
C887        C888   1.405       .  A
C887        H891   1.084       .  S
C888        N892   1.438       .  S
N890        H893   1.046       .  S
N890        H894   1.046       .  S
N892        H895   1.046       .  S
N892        H896   1.046       .  S
C901        C902   1.412       .  A
C901        C906   1.405       .  A
C902        C903   1.404       .  A
C902        N907   1.433   1_565  S
C903        C904   1.403       .  A
C903        H908   1.084       .  S
C904        C909   1.491       .  S
C904        C905   1.413       .  A
C905        C906   1.410       .  A
C905        N910   1.438       .  S
C906        H911   1.084       .  S
N907        H927   1.046       .  S
N907        H928   1.045       .  S
C909        C912   1.404       .  A
C909        C916   1.409       .  A
N910        H925   1.046       .  S
N910        H926   1.046       .  S
C912        C913   1.412       .  A
C912        H917   1.084       .  S
C913        C914   1.419       .  A
C913        N918   1.437       .  S
C914        C915   1.409       .  A
C915        C916   1.405       .  A
C915        H919   1.083       .  S
C916        N920   1.438       .  S
N918        H921   1.046       .  S
N918        H922   1.046       .  S
N920        H923   1.046       .  S
N920        H924   1.046       .  S
C929        C930   1.419       .  A
C929        C934   1.406       .  A
C930        C931   1.408       .  A
C930        N935   1.438       .  S
C931        C932   1.402       .  A
C931        H936   1.084       .  S
C932        C937   1.488       .  S
C932        C933   1.411       .  A
C933        C934   1.404       .  A
C933        N938   1.438       .  S
C934        H939   1.083       .  S
N935        H955   1.046       .  S
N935        H956   1.046       .  S
C937        C940   1.402       .  A
C937        C944   1.413       .  A
N938        H953   1.046       .  S
N938        H954   1.046       .  S
C940        C941   1.405       .  A
C940        H945   1.084       .  S
C941        C942   1.414   1_655  A
C941        N946   1.438   1_655  S
C942        C943   1.405   1_455  A
C943        C944   1.407       .  A
C943        H947   1.084       .  S
C944        N948   1.438       .  S
N946        H949   1.046       .  S
N946        H950   1.046       .  S
N948        H951   1.046       .  S
N948        H952   1.046       .  S
C957        C958   1.416   1_545  A
C957        C962   1.409   1_545  A
C958        C959   1.412       .  A
C958        N963   1.437       .  S
C959        C960   1.406       .  A
C959        H964   1.083       .  S
C960        C965   1.486       .  S
C960        C961   1.407       .  A
C961        C962   1.400       .  A
C961        N966   1.439       .  S
C962        H967   1.083   1_565  S
N963        H983   1.046   1_565  S
N963        H984   1.046       .  S
C965        C968   1.405       .  A
C965        C972   1.408       .  A
N966        H981   1.046       .  S
N966        H982   1.046       .  S
C968        C969   1.409       .  A
C968        H973   1.084       .  S
C969        C970   1.414       .  A
C969        N974   1.438       .  S
C970        C971   1.408       .  A
C971        C972   1.403       .  A
C971        H975   1.084       .  S
C972        N976   1.438       .  S
N974        H977   1.046       .  S
N974        H978   1.045       .  S
N976        H979   1.046       .  S
N976        H980   1.046       .  S
C985        C986   1.414       .  A
C985        C990   1.405       .  A
C986        C987   1.409       .  A
C986        N991   1.438       .  S
C987        C988   1.405       .  A
C987        H992   1.084       .  S
C988        C993   1.493       .  S
C988        C989   1.412       .  A
C989        C990   1.407       .  A
C989        N994   1.438       .  S
C990        H995   1.084       .  S
N991       H1011   1.046       .  S
N991       H1012   1.046       .  S
C993        C996   1.406       .  A
C993       C1000   1.410       .  A
N994       H1009   1.046       .  S
N994       H1010   1.046       .  S
C996        C997   1.411   1_655  A
C996       H1001   1.083       .  S
C997        C998   1.416       .  A
C997       N1002   1.438       .  S
C998        C999   1.409       .  A
C999       C1000   1.403   1_455  A
C999       H1003   1.083       .  S
C1000      N1004   1.439       .  S
N1002      H1005   1.046   1_455  S
N1002      H1006   1.046       .  S
N1004      H1007   1.046       .  S
N1004      H1008   1.046       .  S
C1013      C1014   1.419       .  A
C1013      C1018   1.411       .  A
C1014      C1015   1.409       .  A
C1014      N1019   1.438       .  S
C1015      C1016   1.402       .  A
C1015      H1020   1.084       .  S
C1016      C1021   1.487   1_556  S
C1016      C1017   1.407       .  A
C1017      C1018   1.406       .  A
C1017      N1022   1.438       .  S
C1018      H1023   1.083       .  S
N1019      H1039   1.046       .  S
N1019      H1040   1.046       .  S
C1021      C1024   1.403       .  A
C1021      C1028   1.409       .  A
N1022      H1037   1.046       .  S
N1022      H1038   1.046       .  S
C1024      C1025   1.409       .  A
C1024      H1029   1.084       .  S
C1025      C1026   1.415       .  A
C1025      N1030   1.438       .  S
C1026      C1027   1.405       .  A
C1027      C1028   1.406       .  A
C1027      H1031   1.084       .  S
C1028      N1032   1.437       .  S
N1030      H1033   1.046       .  S
N1030      H1034   1.046       .  S
N1032      H1035   1.046       .  S
N1032      H1036   1.046       .  S
C1041      C1042   1.419       .  A
C1041      C1046   1.409       .  A
C1042      C1043   1.416       .  A
C1042      N1047   1.437       .  S
C1043      C1044   1.404       .  A
C1043      H1048   1.083       .  S
C1044      C1049   1.485   1_565  S
C1044      C1045   1.406       .  A
C1045      C1046   1.400       .  A
C1045      N1050   1.439       .  S
C1046      H1051   1.083       .  S
N1047      H1067   1.045       .  S
N1047      H1068   1.046       .  S
C1049      C1052   1.401       .  A
C1049      C1056   1.409   1_545  A
N1050      H1065   1.046       .  S
N1050      H1066   1.045       .  S
C1052      C1053   1.406       .  A
C1052      H1057   1.084       .  S
C1053      C1054   1.417       .  A
C1053      N1058   1.439       .  S
C1054      C1055   1.408       .  A
C1055      C1056   1.411   1_545  A
C1055      H1059   1.083       .  S
C1056      N1060   1.438       .  S
N1058      H1061   1.046       .  S
N1058      H1062   1.046       .  S
N1060      H1063   1.046       .  S
N1060      H1064   1.045       .  S
C1069      C1070   1.412       .  A
C1069      C1074   1.402       .  A
C1070      C1071   1.409       .  A
C1070      N1075   1.438       .  S
C1071      C1072   1.402       .  A
C1071      H1076   1.083       .  S
C1072      C1077   1.470       .  S
C1072      C1073   1.408       .  A
C1073      C1074   1.395       .  A
C1073      N1078   1.440       .  S
C1074      H1079   1.084       .  S
N1075      H1095   1.046       .  S
N1075      H1096   1.046       .  S
C1077      C1080   1.401       .  A
C1077      C1084   1.408       .  A
N1078      H1093   1.046       .  S
N1078      H1094   1.045       .  S
C1080      C1081   1.393       .  A
C1080      H1085   1.084       .  S
C1081      C1082   1.411       .  A
C1081      N1086   1.434       .  S
C1082      C1083   1.402       .  A
C1083      C1084   1.406       .  A
C1083      H1087   1.084       .  S
C1084      N1088   1.438       .  S
N1086      H1089   1.044       .  S
N1086      H1090   1.045       .  S
N1088      H1091   1.046       .  S
N1088      H1092   1.045       .  S
C1097      C1098   1.420       .  A
C1097      C1102   1.408       .  A
C1098      C1099   1.407       .  A
C1098      N1103   1.438       .  S
C1099      C1100   1.402       .  A
C1099      H1104   1.084       .  S
C1100      C1105   1.490       .  S
C1100      C1101   1.410       .  A
C1101      C1102   1.407       .  A
C1101      N1106   1.438       .  S
C1102      H1107   1.083       .  S
N1103      H1123   1.045       .  S
N1103      H1124   1.046       .  S
C1105      C1108   1.404       .  A
C1105      C1112   1.412       .  A
N1106      H1121   1.046       .  S
N1106      H1122   1.046       .  S
C1108      C1109   1.407       .  A
C1108      H1113   1.084       .  S
C1109      C1110   1.414       .  A
C1109      N1114   1.438       .  S
C1110      C1111   1.404       .  A
C1111      C1112   1.406       .  A
C1111      H1115   1.084       .  S
C1112      N1116   1.438       .  S
N1114      H1117   1.046       .  S
N1114      H1118   1.046       .  S
N1116      H1119   1.046       .  S
N1116      H1120   1.046       .  S
C1125      C1126   1.412       .  A
C1125      C1130   1.404       .  A
C1126      C1127   1.412       .  A
C1126      N1131   1.437       .  S
C1127      C1128   1.404       .  A
C1127      H1132   1.083       .  S
C1128      C1133   1.482       .  S
C1128      C1129   1.409   1_565  A
C1129      C1130   1.403   1_545  A
C1129      N1134   1.439       .  S
C1130      H1135   1.084       .  S
N1131      H1151   1.046       .  S
N1131      H1152   1.046       .  S
C1133      C1136   1.400       .  A
C1133      C1140   1.411   1_565  A
N1134      H1149   1.046       .  S
N1134      H1150   1.045       .  S
C1136      C1137   1.402       .  A
C1136      H1141   1.084       .  S
C1137      C1138   1.412   1_565  A
C1137      N1142   1.438       .  S
C1138      C1139   1.405       .  A
C1139      C1140   1.412       .  A
C1139      H1143   1.084       .  S
C1140      N1144   1.437       .  S
N1142      H1145   1.046       .  S
N1142      H1146   1.045       .  S
N1144      H1147   1.046       .  S
N1144      H1148   1.044       .  S
C1153      C1154   1.414       .  A
C1153      C1158   1.400       .  A
C1154      C1155   1.397       .  A
C1154      N1159   1.439       .  S
C1155      C1156   1.404       .  A
C1155      H1160   1.084       .  S
C1156      C1161   1.488       .  S
C1156      C1157   1.413       .  A
C1157      C1158   1.406       .  A
C1157      N1162   1.437       .  S
C1158      H1163   1.084       .  S
N1159      H1179   1.041       .  S
N1159      H1180   1.046       .  S
C1161      C1164   1.405       .  A
C1161      C1168   1.413       .  A
N1162      H1177   1.046       .  S
N1162      H1178   1.045       .  S
C1164      C1165   1.403       .  A
C1164      H1169   1.083       .  S
C1165      C1166   1.409       .  A
C1165      N1170   1.438       .  S
C1166      C1167   1.402       .  A
C1167      C1168   1.405       .  A
C1167      H1171   1.084       .  S
C1168      N1172   1.438       .  S
N1170      H1173   1.046       .  S
N1170      H1174   1.045       .  S
N1172      H1175   1.046       .  S
N1172      H1176   1.045       .  S
C1181      C1182   1.409       .  A
C1181      C1186   1.404       .  A
C1182      C1183   1.400       .  A
C1182      N1187   1.439       .  S
C1183      C1184   1.401       .  A
C1183      H1188   1.084       .  S
C1184      C1189   1.475       .  S
C1184      C1185   1.409       .  A
C1185      C1186   1.409       .  A
C1185      N1190   1.437       .  S
C1186      H1191   1.084       .  S
N1187      H1207   1.046       .  S
N1187      H1208   1.046       .  S
C1189      C1192   1.404       .  A
C1189      C1196   1.409       .  A
N1190      H1205   1.046       .  S
N1190      H1206   1.045       .  S
C1192      C1193   1.409       .  A
C1192      H1197   1.083       .  S
C1193      C1194   1.408       .  A
C1193      N1198   1.432       .  S
C1194      C1195   1.401       .  A
C1195      C1196   1.398       .  A
C1195      H1199   1.084       .  S
C1196      N1200   1.439       .  S
N1198      H1201   1.046       .  S
N1198      H1202   1.045       .  S
N1200      H1203   1.046       .  S
N1200      H1204   1.045       .  S
C1209      C1210   1.420       .  A
C1209      C1214   1.410       .  A
C1210      C1211   1.413   1_545  A
C1210      N1215   1.437       .  S
C1211      C1212   1.402   1_565  A
C1211      H1216   1.084       .  S
C1212      C1217   1.484   1_545  S
C1212      C1213   1.406       .  A
C1213      C1214   1.403       .  A
C1213      N1218   1.439       .  S
C1214      H1219   1.083       .  S
N1215      H1235   1.045       .  S
N1215      H1236   1.046       .  S
C1217      C1220   1.400       .  A
C1217      C1224   1.408       .  A
N1218      H1233   1.046       .  S
N1218      H1234   1.045       .  S
C1220      C1221   1.406       .  A
C1220      H1225   1.084       .  S
C1221      C1222   1.420       .  A
C1221      N1226   1.439       .  S
C1222      C1223   1.409       .  A
C1223      C1224   1.410       .  A
C1223      H1227   1.083       .  S
C1224      N1228   1.438   1_565  S
N1226      H1229   1.046       .  S
N1226      H1230   1.046       .  S
N1228      H1231   1.046       .  S
N1228      H1232   1.045       .  S
C1237      C1238   1.419       .  A
C1237      C1242   1.408       .  A
C1238      C1239   1.407       .  A
C1238      N1243   1.438       .  S
C1239      C1240   1.401       .  A
C1239      H1244   1.084       .  S
C1240      C1245   1.484       .  S
C1240      C1241   1.408       .  A
C1241      C1242   1.405       .  A
C1241      N1246   1.438       .  S
C1242      H1247   1.083       .  S
N1243      H1263   1.045       .  S
N1243      H1264   1.046       .  S
C1245      C1248   1.400       .  A
C1245      C1252   1.408       .  A
N1246      H1261   1.046       .  S
N1246      H1262   1.046       .  S
C1248      C1249   1.406       .  A
C1248      H1253   1.084       .  S
C1249      C1250   1.419       .  A
C1249      N1254   1.438       .  S
C1250      C1251   1.409       .  A
C1251      C1252   1.406       .  A
C1251      H1255   1.083       .  S
C1252      N1256   1.438       .  S
N1254      H1257   1.046       .  S
N1254      H1258   1.046       .  S
N1256      H1259   1.046       .  S
N1256      H1260   1.046       .  S
C1265      C1266   1.412       .  A
C1265      C1270   1.401       .  A
C1266      C1267   1.411       .  A
C1266      N1271   1.437       .  S
C1267      C1268   1.404       .  A
C1267      H1272   1.083       .  S
C1268      C1273   1.475       .  S
C1268      C1269   1.408       .  A
C1269      C1270   1.395       .  A
C1269      N1274   1.439       .  S
C1270      H1275   1.084       .  S
N1271      H1291   1.046       .  S
N1271      H1292   1.046       .  S
C1273      C1276   1.400       .  A
C1273      C1280   1.409       .  A
N1274      H1289   1.046       .  S
N1274      H1290   1.046       .  S
C1276      C1277   1.402       .  A
C1276      H1281   1.084       .  S
C1277      C1278   1.414       .  A
C1277      N1282   1.439       .  S
C1278      C1279   1.405       .  A
C1279      C1280   1.406       .  A
C1279      H1283   1.084       .  S
C1280      N1284   1.438       .  S
N1282      H1285   1.046       .  S
N1282      H1286   1.046       .  S
N1284      H1287   1.046       .  S
N1284      H1288   1.046       .  S
C1293      C1294   1.412       .  A
C1293      C1298   1.403       .  A
C1294      C1295   1.403       .  A
C1294      N1299   1.438       .  S
C1295      C1296   1.403       .  A
C1295      H1300   1.084       .  S
C1296      C1301   1.490       .  S
C1296      C1297   1.413       .  A
C1297      C1298   1.411       .  A
C1297      N1302   1.437   1_565  S
C1298      H1303   1.084       .  S
N1299      H1319   1.046       .  S
N1299      H1320   1.046       .  S
C1301      C1304   1.404   1_565  A
C1301      C1308   1.414       .  A
N1302      H1317   1.046       .  S
N1302      H1318   1.045       .  S
C1304      C1305   1.406       .  A
C1304      H1309   1.084       .  S
C1305      C1306   1.409       .  A
C1305      N1310   1.438       .  S
C1306      C1307   1.401       .  A
C1307      C1308   1.409   1_545  A
C1307      H1311   1.084   1_545  S
C1308      N1312   1.437       .  S
N1310      H1313   1.046       .  S
N1310      H1314   1.046       .  S
N1312      H1315   1.046       .  S
N1312      H1316   1.045       .  S
C1321      C1322   1.420       .  A
C1321      C1326   1.408       .  A
C1322      C1323   1.409       .  A
C1322      N1327   1.438       .  S
C1323      C1324   1.400       .  A
C1323      H1328   1.084   1_655  S
C1324      C1329   1.479   1_655  S
C1324      C1325   1.407       .  A
C1325      C1326   1.403       .  A
C1325      N1330   1.438       .  S
C1326      H1331   1.083       .  S
N1327      H1347   1.046       .  S
N1327      H1348   1.046   1_655  S
C1329      C1332   1.397       .  A
C1329      C1336   1.408       .  A
N1330      H1345   1.046       .  S
N1330      H1346   1.045       .  S
C1332      C1333   1.399       .  A
C1332      H1337   1.084       .  S
C1333      C1334   1.419       .  A
C1333      N1338   1.433       .  S
C1334      C1335   1.409       .  A
C1335      C1336   1.411       .  A
C1335      H1339   1.083       .  S
C1336      N1340   1.437   1_455  S
N1338      H1341   1.046       .  S
N1338      H1342   1.046       .  S
N1340      H1343   1.045       .  S
N1340      H1344   1.045       .  S
C1349      C1350   1.414       .  A
C1349      C1354   1.406       .  A
C1350      C1351   1.398       .  A
C1350      N1355   1.438       .  S
C1351      C1352   1.400       .  A
C1351      H1356   1.084       .  S
C1352      C1357   1.483       .  S
C1352      C1353   1.411       .  A
C1353      C1354   1.412       .  A
C1353      N1358   1.436       .  S
C1354      H1359   1.083       .  S
N1355      H1375   1.045       .  S
N1355      H1376   1.046       .  S
C1357      C1360   1.403       .  A
C1357      C1364   1.413       .  A
N1358      H1373   1.046       .  S
N1358      H1374   1.046       .  S
C1360      C1361   1.404       .  A
C1360      H1365   1.084       .  S
C1361      C1362   1.409       .  A
C1361      N1366   1.438       .  S
C1362      C1363   1.399       .  A
C1363      C1364   1.406       .  A
C1363      H1367   1.084       .  S
C1364      N1368   1.437       .  S
N1366      H1369   1.046       .  S
N1366      H1370   1.046       .  S
N1368      H1371   1.046       .  S
N1368      H1372   1.045       .  S
C1377      C1378   1.415       .  A
C1377      C1382   1.407       .  A
C1378      C1379   1.410       .  A
C1378      N1383   1.438       .  S
C1379      C1380   1.405       .  A
C1379      H1384   1.084       .  S
C1380      C1385   1.493       .  S
C1380      C1381   1.411       .  A
C1381      C1382   1.406       .  A
C1381      N1386   1.438       .  S
C1382      H1387   1.083       .  S
N1383      H1403   1.046       .  S
N1383      H1404   1.046       .  S
C1385      C1388   1.405       .  A
C1385      C1392   1.410       .  A
N1386      H1401   1.046       .  S
N1386      H1402   1.046       .  S
C1388      C1389   1.410   1_655  A
C1388      H1393   1.084       .  S
C1389      C1390   1.417       .  A
C1389      N1394   1.438       .  S
C1390      C1391   1.409       .  A
C1391      C1392   1.406   1_455  A
C1391      H1395   1.083       .  S
C1392      N1396   1.438       .  S
N1394      H1397   1.046   1_455  S
N1394      H1398   1.046       .  S
N1396      H1399   1.046       .  S
N1396      H1400   1.046       .  S
C1405      C1406   1.417       .  A
C1405      C1410   1.408       .  A
C1406      C1407   1.408       .  A
C1406      N1411   1.438       .  S
C1407      C1408   1.404       .  A
C1407      H1412   1.084       .  S
C1408      C1413   1.495       .  S
C1408      C1409   1.412       .  A
C1409      C1410   1.410       .  A
C1409      N1414   1.438       .  S
C1410      H1415   1.083       .  S
N1411      H1431   1.046       .  S
N1411      H1432   1.046       .  S
C1413      C1416   1.408       .  A
C1413      C1420   1.410       .  A
N1414      H1429   1.046       .  S
N1414      H1430   1.046       .  S
C1416      C1417   1.415       .  A
C1416      H1421   1.083       .  S
C1417      C1418   1.414       .  A
C1417      N1422   1.437       .  S
C1418      C1419   1.409       .  A
C1419      C1420   1.402       .  A
C1419      H1423   1.083       .  S
C1420      N1424   1.439       .  S
N1422      H1425   1.046       .  S
N1422      H1426   1.046   1_565  S
N1424      H1427   1.046       .  S
N1424      H1428   1.046       .  S
C1433      C1434   1.412       .  A
C1433      C1438   1.404       .  A
C1434      C1435   1.406       .  A
C1434      N1439   1.438   1_655  S
C1435      C1436   1.402       .  A
C1435      H1440   1.084       .  S
C1436      C1441   1.480       .  S
C1436      C1437   1.416       .  A
C1437      C1438   1.401       .  A
C1437      N1442   1.439       .  S
C1438      H1443   1.084       .  S
N1439      H1459   1.046       .  S
N1439      H1460   1.046       .  S
C1441      C1444   1.403       .  A
C1441      C1448   1.406       .  A
N1442      H1457   1.046       .  S
N1442      H1458   1.043       .  S
C1444      C1445   1.412       .  A
C1444      H1449   1.083       .  S
C1445      C1446   1.417       .  A
C1445      N1450   1.437       .  S
C1446      C1447   1.407       .  A
C1447      C1448   1.400       .  A
C1447      H1451   1.083       .  S
C1448      N1452   1.439       .  S
N1450      H1453   1.046       .  S
N1450      H1454   1.046       .  S
N1452      H1455   1.046       .  S
N1452      H1456   1.046       .  S
C1461      C1462   1.418       .  A
C1461      C1466   1.408       .  A
C1462      C1463   1.406       .  A
C1462      N1467   1.438       .  S
C1463      C1464   1.404       .  A
C1463      H1468   1.083       .  S
C1464      C1469   1.498       .  S
C1464      C1465   1.413       .  A
C1465      C1466   1.410       .  A
C1465      N1470   1.437       .  S
C1466      H1471   1.083       .  S
N1467      H1487   1.046       .  S
N1467      H1488   1.046       .  S
C1469      C1472   1.406       .  A
C1469      C1476   1.413       .  A
N1470      H1485   1.046       .  S
N1470      H1486   1.045       .  S
C1472      C1473   1.410       .  A
C1472      H1477   1.083       .  S
C1473      C1474   1.416       .  A
C1473      N1478   1.437       .  S
C1474      C1475   1.407       .  A
C1475      C1476   1.407       .  A
C1475      H1479   1.084   1_565  S
C1476      N1480   1.438       .  S
N1478      H1481   1.046       .  S
N1478      H1482   1.046       .  S
N1480      H1483   1.046       .  S
N1480      H1484   1.046       .  S
C1489      C1490   1.415       .  A
C1489      C1494   1.408       .  A
C1490      C1491   1.407       .  A
C1490      N1495   1.438       .  S
C1491      C1492   1.404       .  A
C1491      H1496   1.084       .  S
C1492      C1497   1.491       .  S
C1492      C1493   1.411       .  A
C1493      C1494   1.408       .  A
C1493      N1498   1.438       .  S
C1494      H1499   1.084       .  S
N1495      H1515   1.046       .  S
N1495      H1516   1.046       .  S
C1497      C1500   1.402       .  A
C1497      C1504   1.410       .  A
N1498      H1513   1.046       .  S
N1498      H1514   1.046       .  S
C1500      C1501   1.409       .  A
C1500      H1505   1.084       .  S
C1501      C1502   1.420       .  A
C1501      N1506   1.438       .  S
C1502      C1503   1.408       .  A
C1503      C1504   1.406       .  A
C1503      H1507   1.083       .  S
C1504      N1508   1.438       .  S
N1506      H1509   1.046       .  S
N1506      H1510   1.046       .  S
N1508      H1511   1.046       .  S
N1508      H1512   1.046       .  S
C1517      C1518   1.412       .  A
C1517      C1522   1.405       .  A
C1518      C1519   1.412       .  A
C1518      N1523   1.437       .  S
C1519      C1520   1.404       .  A
C1519      H1524   1.083       .  S
C1520      C1525   1.482   1_455  S
C1520      C1521   1.409   1_455  A
C1521      C1522   1.402   1_655  A
C1521      N1526   1.439       .  S
C1522      H1527   1.084   1_455  S
N1523      H1543   1.045       .  S
N1523      H1544   1.046       .  S
C1525      C1528   1.400   1_655  A
C1525      C1532   1.411       .  A
N1526      H1541   1.046       .  S
N1526      H1542   1.044       .  S
C1528      C1529   1.402   1_455  A
C1528      H1533   1.084       .  S
C1529      C1530   1.411       .  A
C1529      N1534   1.438   1_655  S
C1530      C1531   1.404       .  A
C1531      C1532   1.411       .  A
C1531      H1535   1.084       .  S
C1532      N1536   1.438       .  S
N1534      H1537   1.046       .  S
N1534      H1538   1.045       .  S
N1536      H1539   1.046       .  S
N1536      H1540   1.044       .  S
C1545      C1546   1.418       .  A
C1545      C1550   1.407       .  A
C1546      C1547   1.411       .  A
C1546      N1551   1.438       .  S
C1547      C1548   1.402       .  A
C1547      H1552   1.084       .  S
C1548      C1553   1.478       .  S
C1548      C1549   1.406       .  A
C1549      C1550   1.400       .  A
C1549      N1554   1.439       .  S
C1550      H1555   1.083       .  S
N1551      H1571   1.045       .  S
N1551      H1572   1.046       .  S
C1553      C1556   1.398       .  A
C1553      C1560   1.408       .  A
N1554      H1569   1.046       .  S
N1554      H1570   1.044       .  S
C1556      C1557   1.403       .  A
C1556      H1561   1.084       .  S
C1557      C1558   1.418       .  A
C1557      N1562   1.438       .  S
C1558      C1559   1.410       .  A
C1559      C1560   1.409       .  A
C1559      H1563   1.083       .  S
C1560      N1564   1.438       .  S
N1562      H1565   1.046       .  S
N1562      H1566   1.046       .  S
N1564      H1567   1.046       .  S
N1564      H1568   1.044       .  S
C1573      C1574   1.405       .  A
C1573      C1578   1.401       .  A
C1574      C1575   1.403       .  A
C1574      N1579   1.438       .  S
C1575      C1576   1.403       .  A
C1575      H1580   1.084       .  S
C1576      C1581   1.479       .  S
C1576      C1577   1.416       .  A
C1577      C1578   1.402       .  A
C1577      N1582   1.438       .  S
C1578      H1583   1.084       .  S
N1579      H1599   1.046       .  S
N1579      H1600   1.046       .  S
C1581      C1584   1.405       .  A
C1581      C1588   1.410       .  A
N1582      H1597   1.045       .  S
N1582      H1598   1.044       .  S
C1584      C1585   1.410       .  A
C1584      H1589   1.084       .  S
C1585      C1586   1.412       .  A
C1585      N1590   1.438       .  S
C1586      C1587   1.401       .  A
C1587      C1588   1.398       .  A
C1587      H1591   1.084       .  S
C1588      N1592   1.439       .  S
N1590      H1593   1.046       .  S
N1590      H1594   1.046       .  S
N1592      H1595   1.046       .  S
N1592      H1596   1.044       .  S
C1601      C1602   1.414       .  A
C1601      C1606   1.408       .  A
C1602      C1603   1.414       .  A
C1602      N1607   1.437       .  S
C1603      C1604   1.406       .  A
C1603      H1608   1.083   1_655  S
C1604      C1609   1.486   1_655  S
C1604      C1605   1.414       .  A
C1605      C1606   1.398       .  A
C1605      N1610   1.439       .  S
C1606      H1611   1.084       .  S
N1607      H1627   1.046       .  S
N1607      H1628   1.046       .  S
C1609      C1612   1.401       .  A
C1609      C1616   1.407       .  A
N1610      H1625   1.046       .  S
N1610      H1626   1.043       .  S
C1612      C1613   1.408       .  A
C1612      H1617   1.084       .  S
C1613      C1614   1.419       .  A
C1613      N1618   1.438       .  S
C1614      C1615   1.411       .  A
C1615      C1616   1.410       .  A
C1615      H1619   1.083       .  S
C1616      N1620   1.438   1_455  S
N1618      H1621   1.046       .  S
N1618      H1622   1.046       .  S
N1620      H1623   1.046       .  S
N1620      H1624   1.046       .  S
C1629      C1630   1.419   1_655  A
C1629      C1634   1.409   1_655  A
C1630      C1631   1.412       .  A
C1630      N1635   1.438       .  S
C1631      C1632   1.406       .  A
C1631      H1636   1.083       .  S
C1632      C1637   1.498       .  S
C1632      C1633   1.411       .  A
C1633      C1634   1.406       .  A
C1633      N1638   1.438       .  S
C1634      H1639   1.083   1_455  S
N1635      H1655   1.046       .  S
N1635      H1656   1.046       .  S
C1637      C1640   1.408       .  A
C1637      C1644   1.412       .  A
N1638      H1653   1.046       .  S
N1638      H1654   1.046       .  S
C1640      C1641   1.412       .  A
C1640      H1645   1.083       .  S
C1641      C1642   1.414       .  A
C1641      N1646   1.437       .  S
C1642      C1643   1.407       .  A
C1643      C1644   1.406       .  A
C1643      H1647   1.083       .  S
C1644      N1648   1.438       .  S
N1646      H1649   1.046       .  S
N1646      H1650   1.046       .  S
N1648      H1651   1.046       .  S
N1648      H1652   1.046       .  S
C1657      C1658   1.414       .  A
C1657      C1662   1.406       .  A
C1658      C1659   1.406       .  A
C1658      N1663   1.438       .  S
C1659      C1660   1.404       .  A
C1659      H1664   1.084       .  S
C1660      C1665   1.489       .  S
C1660      C1661   1.411       .  A
C1661      C1662   1.406       .  A
C1661      N1666   1.438       .  S
C1662      H1667   1.084       .  S
N1663      H1683   1.046       .  S
N1663      H1684   1.046       .  S
C1665      C1668   1.405       .  A
C1665      C1672   1.409       .  A
N1666      H1681   1.046       .  S
N1666      H1682   1.046       .  S
C1668      C1669   1.411   1_545  A
C1668      H1673   1.084       .  S
C1669      C1670   1.417       .  A
C1669      N1674   1.438       .  S
C1670      C1671   1.408       .  A
C1671      C1672   1.401   1_565  A
C1671      H1675   1.083       .  S
C1672      N1676   1.439       .  S
N1674      H1677   1.046   1_565  S
N1674      H1678   1.046       .  S
N1676      H1679   1.046       .  S
N1676      H1680   1.046       .  S
C1685      C1686   1.415       .  A
C1685      C1690   1.405       .  A
C1686      C1687   1.408       .  A
C1686      N1691   1.438       .  S
C1687      C1688   1.405       .  A
C1687      H1692   1.083       .  S
C1688      C1693   1.496       .  S
C1688      C1689   1.413       .  A
C1689      C1690   1.410       .  A
C1689      N1694   1.437       .  S
C1690      H1695   1.084   1_455  S
N1691      H1711   1.046       .  S
N1691      H1712   1.046       .  S
C1693      C1696   1.404       .  A
C1693      C1700   1.413       .  A
N1694      H1709   1.046       .  S
N1694      H1710   1.046       .  S
C1696      C1697   1.404       .  A
C1696      H1701   1.084       .  S
C1697      C1698   1.413       .  A
C1697      N1702   1.433       .  S
C1698      C1699   1.408       .  A
C1699      C1700   1.411       .  A
C1699      H1703   1.083       .  S
C1700      N1704   1.437       .  S
N1702      H1705   1.046       .  S
N1702      H1706   1.046       .  S
N1704      H1707   1.046       .  S
N1704      H1708   1.045       .  S
C1713      C1714   1.412       .  A
C1713      C1718   1.405   1_565  A
C1714      C1715   1.408   1_565  A
C1714      N1719   1.438       .  S
C1715      C1716   1.404       .  A
C1715      H1720   1.084       .  S
C1716      C1721   1.489       .  S
C1716      C1717   1.411       .  A
C1717      C1718   1.407       .  A
C1717      N1722   1.438       .  S
C1718      H1723   1.084       .  S
N1719      H1739   1.046       .  S
N1719      H1740   1.046       .  S
C1721      C1724   1.403       .  A
C1721      C1728   1.409       .  A
N1722      H1737   1.046       .  S
N1722      H1738   1.046       .  S
C1724      C1725   1.411       .  A
C1724      H1729   1.084       .  S
C1725      C1726   1.418       .  A
C1725      N1730   1.437       .  S
C1726      C1727   1.408       .  A
C1727      C1728   1.405       .  A
C1727      H1731   1.083       .  S
C1728      N1732   1.438       .  S
N1730      H1733   1.046       .  S
N1730      H1734   1.046       .  S
N1732      H1735   1.046       .  S
N1732      H1736   1.046       .  S
C1741      C1742   1.412       .  A
C1741      C1746   1.404       .  A
C1742      C1743   1.405       .  A
C1742      N1747   1.438       .  S
C1743      C1744   1.403       .  A
C1743      H1748   1.084       .  S
C1744      C1749   1.481       .  S
C1744      C1745   1.409       .  A
C1745      C1746   1.404       .  A
C1745      N1750   1.438       .  S
C1746      H1751   1.084       .  S
N1747      H1767   1.046       .  S
N1747      H1768   1.046       .  S
C1749      C1752   1.401       .  A
C1749      C1756   1.407       .  A
N1750      H1765   1.046       .  S
N1750      H1766   1.046       .  S
C1752      C1753   1.406       .  A
C1752      H1757   1.084       .  S
C1753      C1754   1.418       .  A
C1753      N1758   1.438       .  S
C1754      C1755   1.409       .  A
C1755      C1756   1.403       .  A
C1755      H1759   1.083       .  S
C1756      N1760   1.438       .  S
N1758      H1761   1.046       .  S
N1758      H1762   1.045       .  S
N1760      H1763   1.046       .  S
N1760      H1764   1.046       .  S
C1769      C1770   1.412       .  A
C1769      C1774   1.405       .  A
C1770      C1771   1.402       .  A
C1770      N1775   1.438       .  S
C1771      C1772   1.400       .  A
C1771      H1776   1.084       .  S
C1772      C1777   1.483   1_455  S
C1772      C1773   1.411       .  A
C1773      C1774   1.411       .  A
C1773      N1778   1.437   1_455  S
C1774      H1779   1.084       .  S
N1775      H1795   1.045       .  S
N1775      H1796   1.046       .  S
C1777      C1780   1.400       .  A
C1777      C1784   1.413   1_655  A
N1778      H1793   1.046       .  S
N1778      H1794   1.046       .  S
C1780      C1781   1.402       .  A
C1780      H1785   1.084       .  S
C1781      C1782   1.408       .  A
C1781      N1786   1.435       .  S
C1782      C1783   1.402       .  A
C1783      C1784   1.411   1_655  A
C1783      H1787   1.084   1_655  S
C1784      N1788   1.437       .  S
N1786      H1789   1.046       .  S
N1786      H1790   1.045       .  S
N1788      H1791   1.046       .  S
N1788      H1792   1.046       .  S
C1797      C1798   1.406       .  A
C1797      C1802   1.400       .  A
C1798      C1799   1.400       .  A
C1798      N1803   1.439       .  S
C1799      C1800   1.404       .  A
C1799      H1804   1.084       .  S
C1800      C1805   1.479       .  S
C1800      C1801   1.411       .  A
C1801      C1802   1.406       .  A
C1801      N1806   1.437       .  S
C1802      H1807   1.084       .  S
N1803      H1823   1.045       .  S
N1803      H1824   1.046       .  S
C1805      C1808   1.404       .  A
C1805      C1812   1.409       .  A
N1806      H1821   1.046       .  S
N1806      H1822   1.046       .  S
C1808      C1809   1.404       .  A
C1808      H1813   1.084       .  S
C1809      C1810   1.409       .  A
C1809      N1814   1.439       .  S
C1810      C1811   1.399       .  A
C1811      C1812   1.401       .  A
C1811      H1815   1.080       .  S
C1812      N1816   1.437       .  S
N1814      H1817   1.046       .  S
N1814      H1818   1.045       .  S
N1816      H1819   1.046       .  S
N1816      H1820   1.045       .  S
C1825      C1826   1.419       .  A
C1825      C1830   1.409       .  A
C1826      C1827   1.406       .  A
C1826      N1831   1.439       .  S
C1827      C1828   1.400       .  A
C1827      H1832   1.084       .  S
C1828      C1833   1.491       .  S
C1828      C1829   1.410       .  A
C1829      C1830   1.415       .  A
C1829      N1834   1.437       .  S
C1830      H1835   1.083       .  S
N1831      H1851   1.046       .  S
N1831      H1852   1.046       .  S
C1833      C1836   1.405       .  A
C1833      C1840   1.407       .  A
N1834      H1849   1.046       .  S
N1834      H1850   1.045       .  S
C1836      C1837   1.418       .  A
C1836      H1841   1.083       .  S
C1837      C1838   1.419       .  A
C1837      N1842   1.437       .  S
C1838      C1839   1.409       .  A
C1839      C1840   1.404       .  A
C1839      H1843   1.083       .  S
C1840      N1844   1.439       .  S
N1842      H1845   1.046       .  S
N1842      H1846   1.046       .  S
N1844      H1847   1.045       .  S
N1844      H1848   1.046       .  S
C1853      C1854   1.412       .  A
C1853      C1858   1.405       .  A
C1854      C1855   1.405       .  A
C1854      N1859   1.438       .  S
C1855      C1856   1.402       .  A
C1855      H1860   1.084       .  S
C1856      C1861   1.487       .  S
C1856      C1857   1.411       .  A
C1857      C1858   1.411       .  A
C1857      N1862   1.437       .  S
C1858      H1863   1.084       .  S
N1859      H1879   1.046       .  S
N1859      H1880   1.045       .  S
C1861      C1864   1.405       .  A
C1861      C1868   1.406       .  A
N1862      H1877   1.046       .  S
N1862      H1878   1.046       .  S
C1864      C1865   1.416       .  A
C1864      H1869   1.083       .  S
C1865      C1866   1.417       .  A
C1865      N1870   1.436       .  S
C1866      C1867   1.411       .  A
C1867      C1868   1.401       .  A
C1867      H1871   1.083       .  S
C1868      N1872   1.439       .  S
N1870      H1873   1.046       .  S
N1870      H1874   1.046       .  S
N1872      H1875   1.046       .  S
N1872      H1876   1.046       .  S
C1881      C1882   1.415       .  A
C1881      C1886   1.405       .  A
C1882      C1883   1.404       .  A
C1882      N1887   1.438       .  S
C1883      C1884   1.403       .  A
C1883      H1888   1.083       .  S
C1884      C1889   1.488       .  S
C1884      C1885   1.412       .  A
C1885      C1886   1.405       .  A
C1885      N1890   1.438       .  S
C1886      H1891   1.083       .  S
N1887      H1907   1.046       .  S
N1887      H1908   1.046       .  S
C1889      C1892   1.406       .  A
C1889      C1896   1.412       .  A
N1890      H1905   1.046       .  S
N1890      H1906   1.046       .  S
C1892      C1893   1.405       .  A
C1892      H1897   1.083       .  S
C1893      C1894   1.410       .  A
C1893      N1898   1.438       .  S
C1894      C1895   1.405       .  A
C1895      C1896   1.404       .  A
C1895      H1899   1.084       .  S
C1896      N1900   1.438       .  S
N1898      H1901   1.046       .  S
N1898      H1902   1.046       .  S
N1900      H1903   1.046       .  S
N1900      H1904   1.045       .  S
C1909      C1910   1.411       .  A
C1909      C1914   1.406       .  A
C1910      C1911   1.415       .  A
C1910      N1915   1.436       .  S
C1911      C1912   1.408       .  A
C1911      H1916   1.083       .  S
C1912      C1917   1.493       .  S
C1912      C1913   1.411       .  A
C1913      C1914   1.402       .  A
C1913      N1918   1.439       .  S
C1914      H1919   1.084       .  S
N1915      H1935   1.045       .  S
N1915      H1936   1.046       .  S
C1917      C1920   1.405       .  A
C1917      C1924   1.414       .  A
N1918      H1933   1.046       .  S
N1918      H1934   1.046       .  S
C1920      C1921   1.406       .  A
C1920      H1925   1.084       .  S
C1921      C1922   1.410       .  A
C1921      N1926   1.438       .  S
C1922      C1923   1.403       .  A
C1923      C1924   1.410       .  A
C1923      H1927   1.084       .  S
C1924      N1928   1.438       .  S
N1926      H1929   1.046       .  S
N1926      H1930   1.046       .  S
N1928      H1931   1.046       .  S
N1928      H1932   1.046       .  S
C1937      C1938   1.416       .  A
C1937      C1942   1.410       .  A
C1938      C1939   1.411       .  A
C1938      N1943   1.438       .  S
C1939      C1940   1.404       .  A
C1939      H1944   1.084       .  S
C1940      C1945   1.490       .  S
C1940      C1941   1.408       .  A
C1941      C1942   1.408       .  A
C1941      N1946   1.438       .  S
C1942      H1947   1.083       .  S
N1943      H1963   1.046       .  S
N1943      H1964   1.046       .  S
C1945      C1948   1.406       .  A
C1945      C1952   1.408       .  A
N1946      H1961   1.046       .  S
N1946      H1962   1.046       .  S
C1948      C1949   1.415       .  A
C1948      H1953   1.083       .  S
C1949      C1950   1.414       .  A
C1949      N1954   1.437       .  S
C1950      C1951   1.407       .  A
C1951      C1952   1.404       .  A
C1951      H1955   1.084       .  S
C1952      N1956   1.438       .  S
N1954      H1957   1.046       .  S
N1954      H1958   1.046       .  S
N1956      H1959   1.046       .  S
N1956      H1960   1.046       .  S
C1965      C1966   1.413       .  A
C1965      C1970   1.405       .  A
C1966      C1967   1.405       .  A
C1966      N1971   1.438       .  S
C1967      C1968   1.401       .  A
C1967      H1972   1.084       .  S
C1968      C1973   1.488       .  S
C1968      C1969   1.412       .  A
C1969      C1970   1.414       .  A
C1969      N1974   1.437       .  S
C1970      H1975   1.084       .  S
N1971      H1991   1.046       .  S
N1971      H1992   1.046       .  S
C1973      C1976   1.404       .  A
C1973      C1980   1.406       .  A
N1974      H1989   1.046       .  S
N1974      H1990   1.045       .  S
C1976      C1977   1.416       .  A
C1976      H1981   1.083       .  S
C1977      C1978   1.418       .  A
C1977      N1982   1.437       .  S
C1978      C1979   1.410       .  A
C1979      C1980   1.403       .  A
C1979      H1983   1.083       .  S
C1980      N1984   1.439       .  S
N1982      H1985   1.046       .  S
N1982      H1986   1.046       .  S
N1984      H1987   1.046       .  S
N1984      H1988   1.045       .  S
C1993      C1994   1.416       .  A
C1993      C1998   1.406       .  A
C1994      C1995   1.405       .  A
C1994      N1999   1.438       .  S
C1995      C1996   1.401       .  A
C1995      H2000   1.084       .  S
C1996      C2001   1.489       .  S
C1996      C1997   1.412       .  A
C1997      C1998   1.410       .  A
C1997      N2002   1.437       .  S
C1998      H2003   1.083       .  S
N1999      H2019   1.046       .  S
N1999      H2020   1.046       .  S
C2001      C2004   1.402       .  A
C2001      C2008   1.410       .  A
N2002      H2017   1.046       .  S
N2002      H2018   1.045       .  S
C2004      C2005   1.411       .  A
C2004      H2009   1.084       .  S
C2005      C2006   1.420       .  A
C2005      N2010   1.438       .  S
C2006      C2007   1.407       .  A
C2007      C2008   1.404       .  A
C2007      H2011   1.083       .  S
C2008      N2012   1.439       .  S
N2010      H2013   1.046       .  S
N2010      H2014   1.046       .  S
N2012      H2015   1.046       .  S
N2012      H2016   1.046       .  S
C2021      C2022   1.418       .  A
C2021      C2026   1.406       .  A
C2022      C2023   1.401       .  A
C2022      N2027   1.439       .  S
C2023      C2024   1.397       .  A
C2023      H2028   1.084       .  S
C2024      C2029   1.474       .  S
C2024      C2025   1.408       .  A
C2025      C2026   1.405       .  A
C2025      N2030   1.437       .  S
C2026      H2031   1.083       .  S
N2027      H2047   1.046       .  S
N2027      H2048   1.046       .  S
C2029      C2032   1.397       .  A
C2029      C2036   1.407       .  A
N2030      H2045   1.046       .  S
N2030      H2046   1.046       .  S
C2032      C2033   1.403       .  A
C2032      H2037   1.084       .  S
C2033      C2034   1.420       .  A
C2033      N2038   1.439       .  S
C2034      C2035   1.405       .  A
C2035      C2036   1.404       .  A
C2035      H2039   1.083       .  S
C2036      N2040   1.438       .  S
N2038      H2041   1.046       .  S
N2038      H2042   1.046       .  S
N2040      H2043   1.046       .  S
N2040      H2044   1.046       .  S
C2049      C2050   1.410       .  A
C2049      C2054   1.405       .  A
C2050      C2051   1.398       .  A
C2050      N2055   1.433       .  S
C2051      C2052   1.402       .  A
C2051      H2056   1.084       .  S
C2052      C2057   1.491       .  S
C2052      C2053   1.414       .  A
C2053      C2054   1.415       .  A
C2053      N2058   1.437       .  S
C2054      H2059   1.083       .  S
N2055      H2075   1.045       .  S
N2055      H2076   1.045       .  S
C2057      C2060   1.406       .  A
C2057      C2064   1.413       .  A
N2058      H2073   1.046       .  S
N2058      H2074   1.045       .  S
C2060      C2061   1.410       .  A
C2060      H2065   1.083       .  S
C2061      C2062   1.411       .  A
C2061      N2066   1.438       .  S
C2062      C2063   1.401       .  A
C2063      C2064   1.405       .  A
C2063      H2067   1.084       .  S
C2064      N2068   1.438       .  S
N2066      H2069   1.046       .  S
N2066      H2070   1.046       .  S
N2068      H2071   1.046       .  S
N2068      H2072   1.046       .  S
C2077      C2078   1.417       .  A
C2077      C2082   1.405       .  A
C2078      C2079   1.404       .  A
C2078      N2083   1.433       .  S
C2079      C2080   1.399       .  A
C2079      H2084   1.084       .  S
C2080      C2085   1.479       .  S
C2080      C2081   1.409       .  A
C2081      C2082   1.405       .  A
C2081      N2086   1.437       .  S
C2082      H2087   1.083       .  S
N2083      H2103   1.046       .  S
N2083      H2104   1.046       .  S
C2085      C2088   1.399       .  A
C2085      C2092   1.410       .  A
N2086      H2101   1.046       .  S
N2086      H2102   1.046       .  S
C2088      C2089   1.399       .  A
C2088      H2093   1.084       .  S
C2089      C2090   1.412       .  A
C2089      N2094   1.439       .  S
C2090      C2091   1.404       .  A
C2091      C2092   1.412       .  A
C2091      H2095   1.084       .  S
C2092      N2096   1.437       .  S
N2094      H2097   1.046       .  S
N2094      H2098   1.045       .  S
N2096      H2099   1.046       .  S
N2096      H2100   1.046       .  S
C2105      C2106   1.416       .  A
C2105      C2110   1.408       .  A
C2106      C2107   1.413       .  A
C2106      N2111   1.437       .  S
C2107      C2108   1.404       .  A
C2107      H2112   1.083       .  S
C2108      C2113   1.483       .  S
C2108      C2109   1.407       .  A
C2109      C2110   1.402       .  A
C2109      N2114   1.439       .  S
C2110      H2115   1.083       .  S
N2111      H2131   1.046       .  S
N2111      H2132   1.046       .  S
C2113      C2116   1.401       .  A
C2113      C2120   1.411       .  A
N2114      H2129   1.046       .  S
N2114      H2130   1.044       .  S
C2116      C2117   1.405       .  A
C2116      H2121   1.084       .  S
C2117      C2118   1.415       .  A
C2117      N2122   1.439       .  S
C2118      C2119   1.405       .  A
C2119      C2120   1.409       .  A
C2119      H2123   1.084       .  S
C2120      N2124   1.438       .  S
N2122      H2125   1.046       .  S
N2122      H2126   1.046       .  S
N2124      H2127   1.046       .  S
N2124      H2128   1.044       .  S
C2133      C2134   1.415       .  A
C2133      C2138   1.404       .  A
C2134      C2135   1.406       .  A
C2134      N2139   1.438       .  S
C2135      C2136   1.404       .  A
C2135      H2140   1.083       .  S
C2136      C2141   1.487       .  S
C2136      C2137   1.410       .  A
C2137      C2138   1.403       .  A
C2137      N2142   1.438       .  S
C2138      H2143   1.084       .  S
N2139      H2159   1.046       .  S
N2139      H2160   1.046       .  S
C2141      C2144   1.403       .  A
C2141      C2148   1.410       .  A
N2142      H2157   1.046       .  S
N2142      H2158   1.045       .  S
C2144      C2145   1.403       .  A
C2144      H2149   1.084       .  S
C2145      C2146   1.415       .  A
C2145      N2150   1.438       .  S
C2146      C2147   1.408       .  A
C2147      C2148   1.406       .  A
C2147      H2151   1.083       .  S
C2148      N2152   1.438       .  S
N2150      H2153   1.046       .  S
N2150      H2154   1.046       .  S
N2152      H2155   1.046       .  S
N2152      H2156   1.045       .  S
C2161      C2162   1.420       .  A
C2161      C2166   1.408       .  A
C2162      C2163   1.407       .  A
C2162      N2167   1.439       .  S
C2163      C2164   1.402       .  A
C2163      H2168   1.084       .  S
C2164      C2169   1.488       .  S
C2164      C2165   1.409       .  A
C2165      C2166   1.406       .  A
C2165      N2170   1.438       .  S
C2166      H2171   1.083       .  S
N2167      H2187   1.046       .  S
N2167      H2188   1.046       .  S
C2169      C2172   1.403       .  A
C2169      C2176   1.409       .  A
N2170      H2185   1.046       .  S
N2170      H2186   1.046       .  S
C2172      C2173   1.407       .  A
C2172      H2177   1.084       .  S
C2173      C2174   1.417       .  A
C2173      N2178   1.438       .  S
C2174      C2175   1.408       .  A
C2175      C2176   1.406       .  A
C2175      H2179   1.083       .  S
C2176      N2180   1.438       .  S
N2178      H2181   1.046       .  S
N2178      H2182   1.046       .  S
N2180      H2183   1.046       .  S
N2180      H2184   1.046       .  S
C2189      C2190   1.418       .  A
C2189      C2194   1.409       .  A
C2190      C2191   1.418       .  A
C2190      N2195   1.437       .  S
C2191      C2192   1.406       .  A
C2191      H2196   1.083       .  S
C2192      C2197   1.485       .  S
C2192      C2193   1.405       .  A
C2193      C2194   1.398       .  A
C2193      N2198   1.439       .  S
C2194      H2199   1.083       .  S
N2195      H2215   1.045       .  S
N2195      H2216   1.046       .  S
C2197      C2200   1.401       .  A
C2197      C2204   1.411       .  A
N2198      H2213   1.046       .  S
N2198      H2214   1.045       .  S
C2200      C2201   1.406       .  A
C2200      H2205   1.084       .  S
C2201      C2202   1.414       .  A
C2201      N2206   1.438       .  S
C2202      C2203   1.406       .  A
C2203      C2204   1.412       .  A
C2203      H2207   1.084       .  S
C2204      N2208   1.438       .  S
N2206      H2209   1.046       .  S
N2206      H2210   1.046       .  S
N2208      H2211   1.046       .  S
N2208      H2212   1.045       .  S
C2217      C2218   1.413       .  A
C2217      C2222   1.410       .  A
C2218      C2219   1.412       .  A
C2218      N2223   1.437       .  S
C2219      C2220   1.407       .  A
C2219      H2224   1.083       .  S
C2220      C2225   1.490       .  S
C2220      C2221   1.408       .  A
C2221      C2222   1.401       .  A
C2221      N2226   1.439       .  S
C2222      H2227   1.083       .  S
N2223      H2243   1.046       .  S
N2223      H2244   1.046       .  S
C2225      C2228   1.405       .  A
C2225      C2232   1.409       .  A
N2226      H2241   1.046       .  S
N2226      H2242   1.046       .  S
C2228      C2229   1.406       .  A
C2228      H2233   1.084       .  S
C2229      C2230   1.413       .  A
C2229      N2234   1.432       .  S
C2230      C2231   1.409       .  A
C2231      C2232   1.405       .  A
C2231      H2235   1.083       .  S
C2232      N2236   1.438       .  S
N2234      H2237   1.046       .  S
N2234      H2238   1.045       .  S
N2236      H2239   1.046       .  S
N2236      H2240   1.046       .  S
C2245      C2246   1.416       .  A
C2245      C2250   1.405       .  A
C2246      C2247   1.403       .  A
C2246      N2251   1.439       .  S
C2247      C2248   1.402       .  A
C2247      H2252   1.084       .  S
C2248      C2253   1.491       .  S
C2248      C2249   1.413       .  A
C2249      C2250   1.411       .  A
C2249      N2254   1.437       .  S
C2250      H2255   1.084       .  S
N2251      H2271   1.045       .  S
N2251      H2272   1.046       .  S
C2253      C2256   1.403       .  A
C2253      C2260   1.412       .  A
N2254      H2269   1.046       .  S
N2254      H2270   1.046       .  S
C2256      C2257   1.408       .  A
C2256      H2261   1.083       .  S
C2257      C2258   1.418       .  A
C2257      N2262   1.438       .  S
C2258      C2259   1.405       .  A
C2259      C2260   1.405       .  A
C2259      H2263   1.083       .  S
C2260      N2264   1.438       .  S
N2262      H2265   1.046       .  S
N2262      H2266   1.046       .  S
N2264      H2267   1.046       .  S
N2264      H2268   1.045       .  S
C2273      C2274   1.416       .  A
C2273      C2278   1.409       .  A
C2274      C2275   1.413       .  A
C2274      N2279   1.437       .  S
C2275      C2276   1.404       .  A
C2275      H2280   1.084       .  S
C2276      C2281   1.485       .  S
C2276      C2277   1.408       .  A
C2277      C2278   1.404       .  A
C2277      N2282   1.439       .  S
C2278      H2283   1.084       .  S
N2279      H2299   1.046       .  S
N2279      H2300   1.046       .  S
C2281      C2284   1.398       .  A
C2281      C2288   1.412       .  A
N2282      H2297   1.046       .  S
N2282      H2298   1.044       .  S
C2284      C2285   1.402       .  A
C2284      H2289   1.084       .  S
C2285      C2286   1.418       .  A
C2285      N2290   1.439       .  S
C2286      C2287   1.406       .  A
C2287      C2288   1.415       .  A
C2287      H2291   1.083       .  S
C2288      N2292   1.437       .  S
N2290      H2293   1.046       .  S
N2290      H2294   1.046       .  S
N2292      H2295   1.046       .  S
N2292      H2296   1.044       .  S
C2301      C2302   1.414       .  A
C2301      C2306   1.405       .  A
C2302      C2303   1.407       .  A
C2302      N2307   1.438       .  S
C2303      C2304   1.403       .  A
C2303      H2308   1.084       .  S
C2304      C2309   1.492       .  S
C2304      C2305   1.413       .  A
C2305      C2306   1.409       .  A
C2305      N2310   1.438       .  S
C2306      H2311   1.084       .  S
N2307      H2327   1.046       .  S
N2307      H2328   1.046       .  S
C2309      C2312   1.403       .  A
C2309      C2316   1.411       .  A
N2310      H2325   1.046       .  S
N2310      H2326   1.046       .  S
C2312      C2313   1.411       .  A
C2312      H2317   1.084       .  S
C2313      C2314   1.420       .  A
C2313      N2318   1.438       .  S
C2314      C2315   1.408       .  A
C2315      C2316   1.406       .  A
C2315      H2319   1.083       .  S
C2316      N2320   1.438       .  S
N2318      H2321   1.046       .  S
N2318      H2322   1.045       .  S
N2320      H2323   1.046       .  S
N2320      H2324   1.046       .  S
C2329      C2330   1.416       .  A
C2329      C2334   1.407       .  A
C2330      C2331   1.405       .  A
C2330      N2335   1.438       .  S
C2331      C2332   1.402       .  A
C2331      H2336   1.084       .  S
C2332      C2337   1.484       .  S
C2332      C2333   1.409       .  A
C2333      C2334   1.404       .  A
C2333      N2338   1.438       .  S
C2334      H2339   1.083       .  S
N2335      H2355   1.046       .  S
N2335      H2356   1.046       .  S
C2337      C2340   1.403       .  A
C2337      C2344   1.409       .  A
N2338      H2353   1.046       .  S
N2338      H2354   1.046       .  S
C2340      C2341   1.404       .  A
C2340      H2345   1.084       .  S
C2341      C2342   1.413       .  A
C2341      N2346   1.438       .  S
C2342      C2343   1.405       .  A
C2343      C2344   1.405       .  A
C2343      H2347   1.084       .  S
C2344      N2348   1.437       .  S
N2346      H2349   1.046       .  S
N2346      H2350   1.045       .  S
N2348      H2351   1.046       .  S
N2348      H2352   1.046       .  S
C2357      C2358   1.419       .  A
C2357      C2362   1.406       .  A
C2358      C2359   1.405       .  A
C2358      N2363   1.438       .  S
C2359      C2360   1.401       .  A
C2359      H2364   1.084       .  S
C2360      C2365   1.487       .  S
C2360      C2361   1.411       .  A
C2361      C2362   1.405       .  A
C2361      N2366   1.438       .  S
C2362      H2367   1.083       .  S
N2363      H2383   1.045       .  S
N2363      H2384   1.046       .  S
C2365      C2368   1.402       .  A
C2365      C2372   1.413       .  A
N2366      H2381   1.046       .  S
N2366      H2382   1.046       .  S
C2368      C2369   1.403       .  A
C2368      H2373   1.084       .  S
C2369      C2370   1.414       .  A
C2369      N2374   1.439       .  S
C2370      C2371   1.403       .  A
C2371      C2372   1.408       .  A
C2371      H2375   1.084       .  S
C2372      N2376   1.438       .  S
N2374      H2377   1.046       .  S
N2374      H2378   1.046       .  S
N2376      H2379   1.046       .  S
N2376      H2380   1.046       .  S
C2385      C2386   1.417       .  A
C2385      C2390   1.409       .  A
C2386      C2387   1.419       .  A
C2386      N2391   1.437       .  S
C2387      C2388   1.406       .  A
C2387      H2392   1.083       .  S
C2388      C2393   1.488       .  S
C2388      C2389   1.405       .  A
C2389      C2390   1.400       .  A
C2389      N2394   1.439       .  S
C2390      H2395   1.083       .  S
N2391      H2411   1.046       .  S
N2391      H2412   1.046       .  S
C2393      C2396   1.401       .  A
C2393      C2400   1.410       .  A
N2394      H2409   1.045       .  S
N2394      H2410   1.046       .  S
C2396      C2397   1.405       .  A
C2396      H2401   1.084       .  S
C2397      C2398   1.417       .  A
C2397      N2402   1.438       .  S
C2398      C2399   1.409       .  A
C2399      C2400   1.413       .  A
C2399      H2403   1.083       .  S
C2400      N2404   1.437       .  S
N2402      H2405   1.046       .  S
N2402      H2406   1.045       .  S
N2404      H2407   1.046       .  S
N2404      H2408   1.045       .  S
C2413      C2414   1.418       .  A
C2413      C2418   1.410       .  A
C2414      C2415   1.415       .  A
C2414      N2419   1.437       .  S
C2415      C2416   1.404       .  A
C2415      H2420   1.083       .  S
C2416      C2421   1.487       .  S
C2416      C2417   1.407       .  A
C2417      C2418   1.402       .  A
C2417      N2422   1.439       .  S
C2418      H2423   1.082       .  S
N2419      H2439   1.046       .  S
N2419      H2440   1.046       .  S
C2421      C2424   1.401       .  A
C2421      C2428   1.410       .  A
N2422      H2437   1.046       .  S
N2422      H2438   1.044       .  S
C2424      C2425   1.406       .  A
C2424      H2429   1.084       .  S
C2425      C2426   1.415       .  A
C2425      N2430   1.433       .  S
C2426      C2427   1.407       .  A
C2427      C2428   1.409       .  A
C2427      H2431   1.083       .  S
C2428      N2432   1.437       .  S
N2430      H2433   1.046       .  S
N2430      H2434   1.046       .  S
N2432      H2435   1.046       .  S
N2432      H2436   1.045       .  S
C2441      C2442   1.412       .  A
C2441      C2446   1.405       .  A
C2442      C2443   1.399       .  A
C2442      N2447   1.436       .  S
C2443      C2444   1.401       .  A
C2443      H2448   1.084       .  S
C2444      C2449   1.489       .  S
C2444      C2445   1.414       .  A
C2445      C2446   1.413       .  A
C2445      N2450   1.437       .  S
C2446      H2451   1.083       .  S
N2447      H2467   1.045       .  S
N2447      H2468   1.046       .  S
C2449      C2452   1.403       .  A
C2449      C2456   1.416       .  A
N2450      H2465   1.046       .  S
N2450      H2466   1.045       .  S
C2452      C2453   1.403       .  A
C2452      H2457   1.083       .  S
C2453      C2454   1.407       .  A
C2453      N2458   1.436       .  S
C2454      C2455   1.399       .  A
C2455      C2456   1.408       .  A
C2455      H2459   1.084       .  S
C2456      N2460   1.437       .  S
N2458      H2461   1.046       .  S
N2458      H2462   1.046       .  S
N2460      H2463   1.046       .  S
N2460      H2464   1.045       .  S
C2469      C2470   1.415       .  A
C2469      C2474   1.406       .  A
C2470      C2471   1.408       .  A
C2470      N2475   1.438       .  S
C2471      C2472   1.402       .  A
C2471      H2476   1.084       .  S
C2472      C2477   1.490       .  S
C2472      C2473   1.411       .  A
C2473      C2474   1.412       .  A
C2473      N2478   1.437       .  S
C2474      H2479   1.083       .  S
N2475      H2495   1.046       .  S
N2475      H2496   1.046       .  S
C2477      C2480   1.405       .  A
C2477      C2484   1.406       .  A
N2478      H2493   1.046       .  S
N2478      H2494   1.045       .  S
C2480      C2481   1.419       .  A
C2480      H2485   1.083       .  S
C2481      C2482   1.419       .  A
C2481      N2486   1.437       .  S
C2482      C2483   1.411       .  A
C2483      C2484   1.403       .  A
C2483      H2487   1.083       .  S
C2484      N2488   1.439       .  S
N2486      H2489   1.046       .  S
N2486      H2490   1.046       .  S
N2488      H2491   1.045       .  S
N2488      H2492   1.045       .  S
C2497      C2498   1.414       .  A
C2497      C2502   1.405       .  A
C2498      C2499   1.410       .  A
C2498      N2503   1.438       .  S
C2499      C2500   1.406       .  A
C2499      H2504   1.083       .  S
C2500      C2505   1.492   1_554  S
C2500      C2501   1.411       .  A
C2501      C2502   1.405       .  A
C2501      N2506   1.438       .  S
C2502      H2507   1.084       .  S
N2503      H2523   1.046       .  S
N2503      H2524   1.046       .  S
C2505      C2508   1.403       .  A
C2505      C2512   1.410       .  A
N2506      H2521   1.046       .  S
N2506      H2522   1.046       .  S
C2508      C2509   1.408       .  A
C2508      H2513   1.084       .  S
C2509      C2510   1.419       .  A
C2509      N2514   1.438       .  S
C2510      C2511   1.410       .  A
C2511      C2512   1.409       .  A
C2511      H2515   1.083       .  S
C2512      N2516   1.438       .  S
N2514      H2517   1.046       .  S
N2514      H2518   1.046       .  S
N2516      H2519   1.046       .  S
N2516      H2520   1.046       .  S
C2525      C2526   1.412       .  A
C2525      C2530   1.404       .  A
C2526      C2527   1.410       .  A
C2526      N2531   1.437       .  S
C2527      C2528   1.403       .  A
C2527      H2532   1.083       .  S
C2528      C2533   1.476       .  S
C2528      C2529   1.407       .  A
C2529      C2530   1.399       .  A
C2529      N2534   1.439       .  S
C2530      H2535   1.083       .  S
N2531      H2551   1.046       .  S
N2531      H2552   1.046       .  S
C2533      C2536   1.400       .  A
C2533      C2540   1.408       .  A
N2534      H2549   1.046       .  S
N2534      H2550   1.045       .  S
C2536      C2537   1.400       .  A
C2536      H2541   1.084       .  S
C2537      C2538   1.413       .  A
C2537      N2542   1.439       .  S
C2538      C2539   1.405       .  A
C2539      C2540   1.409       .  A
C2539      H2543   1.084       .  S
C2540      N2544   1.437       .  S
N2542      H2545   1.046       .  S
N2542      H2546   1.046       .  S
N2544      H2547   1.046       .  S
N2544      H2548   1.045       .  S
C2553      C2554   1.419       .  A
C2553      C2558   1.407       .  A
C2554      C2555   1.404       .  A
C2554      N2559   1.439       .  S
C2555      C2556   1.399       .  A
C2555      H2560   1.084       .  S
C2556      C2561   1.474       .  S
C2556      C2557   1.405       .  A
C2557      C2558   1.405       .  A
C2557      N2562   1.438       .  S
C2558      H2563   1.083       .  S
N2559      H2579   1.046       .  S
N2559      H2580   1.046       .  S
C2561      C2564   1.400       .  A
C2561      C2568   1.406       .  A
N2562      H2577   1.046       .  S
N2562      H2578   1.045       .  S
C2564      C2565   1.408       .  A
C2564      H2569   1.084       .  S
C2565      C2566   1.416       .  A
C2565      N2570   1.437       .  S
C2566      C2567   1.407       .  A
C2567      C2568   1.399       .  A
C2567      H2571   1.083       .  S
C2568      N2572   1.439       .  S
N2570      H2573   1.046       .  S
N2570      H2574   1.046       .  S
N2572      H2575   1.046       .  S
N2572      H2576   1.045       .  S
C2581      C2582   1.419       .  A
C2581      C2586   1.407       .  A
C2582      C2583   1.405       .  A
C2582      N2587   1.439       .  S
C2583      C2584   1.399       .  A
C2583      H2588   1.084       .  S
C2584      C2589   1.483       .  S
C2584      C2585   1.410       .  A
C2585      C2586   1.411       .  A
C2585      N2590   1.438       .  S
C2586      H2591   1.083       .  S
N2587      H2607   1.046       .  S
N2587      H2608   1.046       .  S
C2589      C2592   1.405       .  A
C2589      C2596   1.407       .  A
N2590      H2605   1.046       .  S
N2590      H2606   1.044       .  S
C2592      C2593   1.415       .  A
C2592      H2597   1.083       .  S
C2593      C2594   1.414       .  A
C2593      N2598   1.437       .  S
C2594      C2595   1.407       .  A
C2595      C2596   1.400       .  A
C2595      H2599   1.084       .  S
C2596      N2600   1.439       .  S
N2598      H2601   1.046       .  S
N2598      H2602   1.045       .  S
N2600      H2603   1.046       .  S
N2600      H2604   1.044       .  S
C2609      C2610   1.412       .  A
C2609      C2614   1.402       .  A
C2610      C2611   1.403       .  A
C2610      N2615   1.437       .  S
C2611      C2612   1.401       .  A
C2611      H2616   1.084       .  S
C2612      C2617   1.485       .  S
C2612      C2613   1.413       .  A
C2613      C2614   1.410       .  A
C2613      N2618   1.437       .  S
C2614      H2619   1.084       .  S
N2615      H2635   1.046       .  S
N2615      H2636   1.046       .  S
C2617      C2620   1.398       .  A
C2617      C2624   1.413       .  A
N2618      H2633   1.046       .  S
N2618      H2634   1.045       .  S
C2620      C2621   1.398       .  A
C2620      H2625   1.084       .  S
C2621      C2622   1.412       .  A
C2621      N2626   1.436       .  S
C2622      C2623   1.405       .  A
C2623      C2624   1.415       .  A
C2623      H2627   1.083       .  S
C2624      N2628   1.436       .  S
N2626      H2629   1.046       .  S
N2626      H2630   1.043       .  S
N2628      H2631   1.046       .  S
N2628      H2632   1.046       .  S
C2637      C2638   1.416       .  A
C2637      C2642   1.408       .  A
C2638      C2639   1.395       .  A
C2638      N2643   1.434       .  S
C2639      C2640   1.396       .  A
C2639      H2644   1.085       .  S
C2640      C2645   1.477       .  S
C2640      C2641   1.410       .  A
C2641      C2642   1.413       .  A
C2641      N2646   1.437       .  S
C2642      H2647   1.083       .  S
N2643      H2663   1.045       .  S
N2643      H2664   1.046       .  S
C2645      C2648   1.401       .  A
C2645      C2652   1.406       .  A
N2646      H2661   1.046       .  S
N2646      H2662   1.045       .  S
C2648      C2649   1.410       .  A
C2648      H2653   1.084       .  S
C2649      C2650   1.419       .  A
C2649      N2654   1.438       .  S
C2650      C2651   1.406       .  A
C2651      C2652   1.402       .  A
C2651      H2655   1.080       .  S
C2652      N2656   1.438       .  S
N2654      H2657   1.046       .  S
N2654      H2658   1.046       .  S
N2656      H2659   1.046       .  S
N2656      H2660   1.045       .  S
C2665      C2666   1.412       .  A
C2665      C2670   1.405       .  A
C2666      C2667   1.401       .  A
C2666      N2671   1.433       .  S
C2667      C2668   1.403       .  A
C2667      H2672   1.084       .  S
C2668      C2673   1.491       .  S
C2668      C2669   1.414       .  A
C2669      C2670   1.410       .  A
C2669      N2674   1.437       .  S
C2670      H2675   1.084       .  S
N2671      H2691   1.046       .  S
N2671      H2692   1.046       .  S
C2673      C2676   1.401       .  A
C2673      C2680   1.413       .  A
N2674      H2689   1.046       .  S
N2674      H2690   1.046       .  S
C2676      C2677   1.402       .  A
C2676      H2681   1.084       .  S
C2677      C2678   1.417       .  A
C2677      N2682   1.433       .  S
C2678      C2679   1.407       .  A
C2679      C2680   1.411       .  A
C2679      H2683   1.083       .  S
C2680      N2684   1.437       .  S
N2682      H2685   1.046       .  S
N2682      H2686   1.046       .  S
N2684      H2687   1.046       .  S
N2684      H2688   1.046       .  S
C2693      C2694   1.419       .  A
C2693      C2698   1.409       .  A
C2694      C2695   1.417       .  A
C2694      N2699   1.437       .  S
C2695      C2696   1.406       .  A
C2695      H2700   1.083       .  S
C2696      C2701   1.492       .  S
C2696      C2697   1.408       .  A
C2697      C2698   1.405       .  A
C2697      N2702   1.439       .  S
C2698      H2703   1.083       .  S
N2699      H2719   1.046       .  S
N2699      H2720   1.046       .  S
C2701      C2704   1.400       .  A
C2701      C2708   1.414       .  A
N2702      H2717   1.046       .  S
N2702      H2718   1.044       .  S
C2704      C2705   1.406       .  A
C2704      H2709   1.084       .  S
C2705      C2706   1.416       .  A
C2705      N2710   1.439       .  S
C2706      C2707   1.407       .  A
C2707      C2708   1.416       .  A
C2707      H2711   1.083       .  S
C2708      N2712   1.438       .  S
N2710      H2713   1.046       .  S
N2710      H2714   1.046       .  S
N2712      H2715   1.046       .  S
N2712      H2716   1.044       .  S
C2721      C2722   1.417       .  A
C2721      C2726   1.405       .  A
C2722      C2723   1.406       .  A
C2722      N2727   1.438       .  S
C2723      C2724   1.401       .  A
C2723      H2728   1.084       .  S
C2724      C2729   1.486       .  S
C2724      C2725   1.411       .  A
C2725      C2726   1.407       .  A
C2725      N2730   1.438       .  S
C2726      H2731   1.083       .  S
N2727      H2747   1.046       .  S
N2727      H2748   1.046       .  S
C2729      C2732   1.403       .  A
C2729      C2736   1.409       .  A
N2730      H2745   1.046       .  S
N2730      H2746   1.046       .  S
C2732      C2733   1.410       .  A
C2732      H2737   1.084       .  S
C2733      C2734   1.417       .  A
C2733      N2738   1.438       .  S
C2734      C2735   1.408       .  A
C2735      C2736   1.403       .  A
C2735      H2739   1.083       .  S
C2736      N2740   1.439       .  S
N2738      H2741   1.046       .  S
N2738      H2742   1.046       .  S
N2740      H2743   1.046       .  S
N2740      H2744   1.046       .  S
C2749      C2750   1.418       .  A
C2749      C2754   1.408       .  A
C2750      C2751   1.405       .  A
C2750      N2755   1.438       .  S
C2751      C2752   1.402       .  A
C2751      H2756   1.084       .  S
C2752      C2757   1.486   1_556  S
C2752      C2753   1.410       .  A
C2753      C2754   1.405       .  A
C2753      N2758   1.438       .  S
C2754      H2759   1.083       .  S
N2755      H2775   1.046       .  S
N2755      H2776   1.046       .  S
C2757      C2760   1.404       .  A
C2757      C2764   1.411       .  A
N2758      H2773   1.046       .  S
N2758      H2774   1.046       .  S
C2760      C2761   1.406       .  A
C2760      H2765   1.083       .  S
C2761      C2762   1.412       .  A
C2761      N2766   1.438       .  S
C2762      C2763   1.404       .  A
C2763      C2764   1.403       .  A
C2763      H2767   1.084       .  S
C2764      N2768   1.438       .  S
N2766      H2769   1.046       .  S
N2766      H2770   1.046       .  S
N2768      H2771   1.046       .  S
N2768      H2772   1.046       .  S
C2777      C2778   1.416       .  A
C2777      C2782   1.407       .  A
C2778      C2779   1.400       .  A
C2778      N2783   1.439       .  S
C2779      C2780   1.398       .  A
C2779      H2784   1.084       .  S
C2780      C2785   1.468       .  S
C2780      C2781   1.406       .  A
C2781      C2782   1.403       .  A
C2781      N2786   1.438       .  S
C2782      H2787   1.083       .  S
N2783      H2803   1.046       .  S
N2783      H2804   1.046       .  S
C2785      C2788   1.401       .  A
C2785      C2792   1.405       .  A
N2786      H2801   1.046       .  S
N2786      H2802   1.045       .  S
C2788      C2789   1.408       .  A
C2788      H2793   1.083       .  S
C2789      C2790   1.413       .  A
C2789      N2794   1.437       .  S
C2790      C2791   1.405       .  A
C2791      C2792   1.395       .  A
C2791      H2795   1.084       .  S
C2792      N2796   1.439       .  S
N2794      H2797   1.046       .  S
N2794      H2798   1.046       .  S
N2796      H2799   1.046       .  S
N2796      H2800   1.045       .  S
C2805      C2806   1.412       .  A
C2805      C2810   1.406       .  A
C2806      C2807   1.400       .  A
C2806      N2811   1.439       .  S
C2807      C2808   1.399       .  A
C2807      H2812   1.084       .  S
C2808      C2813   1.479       .  S
C2808      C2809   1.410       .  A
C2809      C2810   1.412       .  A
C2809      N2814   1.437       .  S
C2810      H2815   1.084       .  S
N2811      H2831   1.046       .  S
N2811      H2832   1.046       .  S
C2813      C2816   1.403       .  A
C2813      C2820   1.409       .  A
N2814      H2829   1.046       .  S
N2814      H2830   1.044       .  S
C2816      C2817   1.410       .  A
C2816      H2821   1.084       .  S
C2817      C2818   1.411       .  A
C2817      N2822   1.437       .  S
C2818      C2819   1.402       .  A
C2819      C2820   1.402       .  A
C2819      H2823   1.084       .  S
C2820      N2824   1.438       .  S
N2822      H2825   1.046       .  S
N2822      H2826   1.046       .  S
N2824      H2827   1.046       .  S
N2824      H2828   1.045       .  S
C2833      C2834   1.409       .  A
C2833      C2838   1.402       .  A
C2834      C2835   1.409       .  A
C2834      N2839   1.438       .  S
C2835      C2836   1.407       .  A
C2835      H2840   1.083       .  S
C2836      C2841   1.496       .  S
C2836      C2837   1.415       .  A
C2837      C2838   1.407       .  A
C2837      N2842   1.438       .  S
C2838      H2843   1.084       .  S
N2839      H2859   1.046       .  S
N2839      H2860   1.046       .  S
C2841      C2844   1.402       .  A
C2841      C2848   1.415       .  A
N2842      H2857   1.046       .  S
N2842      H2858   1.045       .  S
C2844      C2845   1.398       .  A
C2844      H2849   1.084       .  S
C2845      C2846   1.415       .  A
C2845      N2850   1.434       .  S
C2846      C2847   1.407       .  A
C2847      C2848   1.415       .  A
C2847      H2851   1.083       .  S
C2848      N2852   1.437       .  S
N2850      H2853   1.046       .  S
N2850      H2854   1.046       .  S
N2852      H2855   1.046       .  S
N2852      H2856   1.046       .  S
C2861      C2862   1.408       .  A
C2861      C2866   1.398       .  A
C2862      C2863   1.404       .  A
C2862      N2867   1.438       .  S
C2863      C2864   1.403       .  A
C2863      H2868   1.084       .  S
C2864      C2869   1.474       .  S
C2864      C2865   1.413       .  A
C2865      C2866   1.402       .  A
C2865      N2870   1.439       .  S
C2866      H2871   1.084       .  S
N2867      H2887   1.046       .  S
N2867      H2888   1.046       .  S
C2869      C2872   1.399       .  A
C2869      C2876   1.410       .  A
N2870      H2885   1.046       .  S
N2870      H2886   1.043       .  S
C2872      C2873   1.397       .  A
C2872      H2877   1.084       .  S
C2873      C2874   1.412       .  A
C2873      N2878   1.439       .  S
C2874      C2875   1.405       .  A
C2875      C2876   1.410       .  A
C2875      H2879   1.082       .  S
C2876      N2880   1.438       .  S
N2878      H2881   1.046       .  S
N2878      H2882   1.046       .  S
N2880      H2883   1.046       .  S
N2880      H2884   1.043       .  S
C2889      C2890   1.413       .  A
C2889      C2894   1.404       .  A
C2890      C2891   1.398       .  A
C2890      N2895   1.440       .  S
C2891      C2892   1.399       .  A
C2891      H2896   1.084       .  S
C2892      C2897   1.481       .  S
C2892      C2893   1.411       .  A
C2893      C2894   1.412       .  A
C2893      N2898   1.436       .  S
C2894      H2899   1.084       .  S
N2895      H2915   1.046       .  S
N2895      H2916   1.046       .  S
C2897      C2900   1.403       .  A
C2897      C2904   1.409       .  A
N2898      H2913   1.046       .  S
N2898      H2914   1.046       .  S
C2900      C2901   1.407       .  A
C2900      H2905   1.084       .  S
C2901      C2902   1.412       .  A
C2901      N2906   1.438       .  S
C2902      C2903   1.399       .  A
C2903      C2904   1.403       .  A
C2903      H2907   1.081       .  S
C2904      N2908   1.437       .  S
N2906      H2909   1.046       .  S
N2906      H2910   1.045       .  S
N2908      H2911   1.046       .  S
N2908      H2912   1.045       .  S
C2917      C2918   1.413       .  A
C2917      C2922   1.406       .  A
C2918      C2919   1.410       .  A
C2918      N2923   1.437       .  S
C2919      C2920   1.406       .  A
C2919      H2924   1.083       .  S
C2920      C2925   1.493       .  S
C2920      C2921   1.412       .  A
C2921      C2922   1.404       .  A
C2921      N2926   1.438       .  S
C2922      H2927   1.083       .  S
N2923      H2943   1.046       .  S
N2923      H2944   1.046       .  S
C2925      C2928   1.406       .  A
C2925      C2932   1.413       .  A
N2926      H2941   1.046       .  S
N2926      H2942   1.046       .  S
C2928      C2929   1.408       .  A
C2928      H2933   1.083       .  S
C2929      C2930   1.413       .  A
C2929      N2934   1.438       .  S
C2930      C2931   1.404       .  A
C2931      C2932   1.405       .  A
C2931      H2935   1.084       .  S
C2932      N2936   1.438       .  S
N2934      H2937   1.046       .  S
N2934      H2938   1.046       .  S
N2936      H2939   1.046       .  S
N2936      H2940   1.046       .  S
C2945      C2946   1.418       .  A
C2945      C2950   1.410       .  A
C2946      C2947   1.413       .  A
C2946      N2951   1.437       .  S
C2947      C2948   1.402       .  A
C2947      H2952   1.084       .  S
C2948      C2953   1.482       .  S
C2948      C2949   1.406       .  A
C2949      C2950   1.403       .  A
C2949      N2954   1.439       .  S
C2950      H2955   1.083       .  S
N2951      H2971   1.045       .  S
N2951      H2972   1.046       .  S
C2953      C2956   1.398       .  A
C2953      C2960   1.410       .  A
N2954      H2969   1.046       .  S
N2954      H2970   1.045       .  S
C2956      C2957   1.402       .  A
C2956      H2961   1.084       .  S
C2957      C2958   1.418       .  A
C2957      N2962   1.439       .  S
C2958      C2959   1.406       .  A
C2959      C2960   1.412       .  A
C2959      H2963   1.083       .  S
C2960      N2964   1.437       .  S
N2962      H2965   1.046       .  S
N2962      H2966   1.045       .  S
N2964      H2967   1.046       .  S
N2964      H2968   1.045       .  S
C2973      C2974   1.415       .  A
C2973      C2978   1.405       .  A
C2974      C2975   1.407       .  A
C2974      N2979   1.438       .  S
C2975      C2976   1.403       .  A
C2975      H2980   1.084       .  S
C2976      C2981   1.492       .  S
C2976      C2977   1.413       .  A
C2977      C2978   1.409       .  A
C2977      N2982   1.438       .  S
C2978      H2983   1.084       .  S
N2979      H2999   1.046       .  S
N2979      H3000   1.046       .  S
C2981      C2984   1.404       .  A
C2981      C2988   1.412       .  A
N2982      H2997   1.046       .  S
N2982      H2998   1.046       .  S
C2984      C2985   1.411       .  A
C2984      H2989   1.084       .  S
C2985      C2986   1.419       .  A
C2985      N2990   1.438       .  S
C2986      C2987   1.406       .  A
C2987      C2988   1.404       .  A
C2987      H2991   1.083       .  S
C2988      N2992   1.438       .  S
N2990      H2993   1.046       .  S
N2990      H2994   1.046       .  S
N2992      H2995   1.046       .  S
N2992      H2996   1.046       .  S
C3001      C3002   1.421       .  A
C3001      C3006   1.408       .  A
C3002      C3003   1.406       .  A
C3002      N3007   1.438       .  S
C3003      C3004   1.399       .  A
C3003      H3008   1.084       .  S
C3004      C3009   1.482   1_556  S
C3004      C3005   1.408       .  A
C3005      C3006   1.405       .  A
C3005      N3010   1.438       .  S
C3006      H3011   1.083       .  S
N3007      H3027   1.046       .  S
N3007      H3028   1.046       .  S
C3009      C3012   1.402       .  A
C3009      C3016   1.411       .  A
N3010      H3025   1.046       .  S
N3010      H3026   1.046       .  S
C3012      C3013   1.404       .  A
C3012      H3017   1.084       .  S
C3013      C3014   1.411       .  A
C3013      N3018   1.439       .  S
C3014      C3015   1.403       .  A
C3015      C3016   1.406       .  A
C3015      H3019   1.084       .  S
C3016      N3020   1.438       .  S
N3018      H3021   1.046       .  S
N3018      H3022   1.045       .  S
N3020      H3023   1.046       .  S
N3020      H3024   1.046       .  S
C3029      C3030   1.414       .  A
C3029      C3034   1.404       .  A
C3030      C3031   1.408       .  A
C3030      N3035   1.437       .  S
C3031      C3032   1.401       .  A
C3031      H3036   1.084       .  S
C3032      C3037   1.468       .  S
C3032      C3033   1.405       .  A
C3033      C3034   1.394       .  A
C3033      N3038   1.439       .  S
C3034      H3039   1.084       .  S
N3035      H3055   1.045       .  S
N3035      H3056   1.046       .  S
C3037      C3040   1.397       .  A
C3037      C3044   1.408       .  A
N3038      H3053   1.046       .  S
N3038      H3054   1.045       .  S
C3040      C3041   1.396       .  A
C3040      H3045   1.084       .  S
C3041      C3042   1.414       .  A
C3041      N3046   1.434       .  S
C3042      C3043   1.405       .  A
C3043      C3044   1.405       .  A
C3043      H3047   1.083       .  S
C3044      N3048   1.438       .  S
N3046      H3049   1.046       .  S
N3046      H3050   1.046       .  S
N3048      H3051   1.046       .  S
N3048      H3052   1.045       .  S
C3057      C3058   1.412       .  A
C3057      C3062   1.408       .  A
C3058      C3059   1.399       .  A
C3058      N3063   1.433       .  S
C3059      C3060   1.399       .  A
C3059      H3064   1.084       .  S
C3060      C3065   1.484       .  S
C3060      C3061   1.412       .  A
C3061      C3062   1.416       .  A
C3061      N3066   1.437       .  S
C3062      H3067   1.083       .  S
N3063      H3083   1.046       .  S
N3063      H3084   1.046       .  S
C3065      C3068   1.405       .  A
C3065      C3072   1.409       .  A
N3066      H3081   1.046       .  S
N3066      H3082   1.045       .  S
C3068      C3069   1.413       .  A
C3068      H3073   1.083       .  S
C3069      C3070   1.411       .  A
C3069      N3074   1.437       .  S
C3070      C3071   1.403       .  A
C3071      C3072   1.403       .  A
C3071      H3075   1.084       .  S
C3072      N3076   1.438       .  S
N3074      H3077   1.046       .  S
N3074      H3078   1.045       .  S
N3076      H3079   1.046       .  S
N3076      H3080   1.045       .  S
C3085      C3086   1.416       .  A
C3085      C3090   1.409       .  A
C3086      C3087   1.401       .  A
C3086      N3091   1.433       .  S
C3087      C3088   1.402       .  A
C3087      H3092   1.084       .  S
C3088      C3093   1.496       .  S
C3088      C3089   1.414       .  A
C3089      C3090   1.413       .  A
C3089      N3094   1.437       .  S
C3090      H3095   1.083       .  S
N3091      H3111   1.046       .  S
N3091      H3112   1.046       .  S
C3093      C3096   1.406       .  A
C3093      C3100   1.414       .  A
N3094      H3109   1.046       .  S
N3094      H3110   1.046       .  S
C3096      C3097   1.410       .  A
C3096      H3101   1.083       .  S
C3097      C3098   1.411       .  A
C3097      N3102   1.438       .  S
C3098      C3099   1.402       .  A
C3099      C3100   1.408       .  A
C3099      H3103   1.084       .  S
C3100      N3104   1.438       .  S
N3102      H3105   1.046       .  S
N3102      H3106   1.046       .  S
N3104      H3107   1.046       .  S
N3104      H3108   1.046       .  S
C3113      C3114   1.412       .  A
C3113      C3118   1.405       .  A
C3114      C3115   1.402       .  A
C3114      N3119   1.438       .  S
C3115      C3116   1.399       .  A
C3115      H3120   1.084       .  S
C3116      C3121   1.481       .  S
C3116      C3117   1.411       .  A
C3117      C3118   1.411       .  A
C3117      N3122   1.438       .  S
C3118      H3123   1.084       .  S
N3119      H3139   1.046       .  S
N3119      H3140   1.046       .  S
C3121      C3124   1.401       .  A
C3121      C3128   1.408       .  A
N3122      H3137   1.046       .  S
N3122      H3138   1.044       .  S
C3124      C3125   1.411       .  A
C3124      H3129   1.084       .  S
C3125      C3126   1.420       .  A
C3125      N3130   1.437       .  S
C3126      C3127   1.407       .  A
C3127      C3128   1.403       .  A
C3127      H3131   1.083       .  S
C3128      N3132   1.439       .  S
N3130      H3133   1.046       .  S
N3130      H3134   1.045       .  S
N3132      H3135   1.046       .  S
N3132      H3136   1.044       .  S
C3141      C3142   1.408       .  A
C3141      C3146   1.406       .  A
C3142      C3143   1.392       .  A
C3142      N3147   1.434       .  S
C3143      C3144   1.400       .  A
C3143      H3148   1.085       .  S
C3144      C3149   1.470       .  S
C3144      C3145   1.407       .  A
C3145      C3146   1.407       .  A
C3145      N3150   1.437       .  S
C3146      H3151   1.083       .  S
N3147      H3167   1.046       .  S
N3147      H3168   1.046       .  S
C3149      C3152   1.401       .  A
C3149      C3156   1.409       .  A
N3150      H3165   1.046       .  S
N3150      H3166   1.046       .  S
C3152      C3153   1.404       .  A
C3152      H3157   1.084       .  S
C3153      C3154   1.406       .  A
C3153      N3158   1.437       .  S
C3154      C3155   1.397       .  A
C3155      C3156   1.398       .  A
C3155      H3159   1.084       .  S
C3156      N3160   1.438       .  S
N3158      H3161   1.046       .  S
N3158      H3162   1.046       .  S
N3160      H3163   1.046       .  S
N3160      H3164   1.045       .  S
C3169      C3170   1.419       .  A
C3169      C3174   1.408       .  A
C3170      C3171   1.407       .  A
C3170      N3175   1.438       .  S
C3171      C3172   1.400       .  A
C3171      H3176   1.084       .  S
C3172      C3177   1.479       .  S
C3172      C3173   1.407       .  A
C3173      C3174   1.406       .  A
C3173      N3178   1.438       .  S
C3174      H3179   1.083       .  S
N3175      H3195   1.045       .  S
N3175      H3196   1.046       .  S
C3177      C3180   1.403       .  A
C3177      C3184   1.406       .  A
N3178      H3193   1.046       .  S
N3178      H3194   1.046       .  S
C3180      C3181   1.412       .  A
C3180      H3185   1.083       .  S
C3181      C3182   1.414       .  A
C3181      N3186   1.437       .  S
C3182      C3183   1.407       .  A
C3183      C3184   1.400       .  A
C3183      H3187   1.084       .  S
C3184      N3188   1.439       .  S
N3186      H3189   1.046       .  S
N3186      H3190   1.046       .  S
N3188      H3191   1.046       .  S
N3188      H3192   1.045       .  S
C3197      C3198   1.419       .  A
C3197      C3202   1.406       .  A
C3198      C3199   1.412       .  A
C3198      N3203   1.438       .  S
C3199      C3200   1.403       .  A
C3199      H3204   1.084       .  S
C3200      C3205   1.494       .  S
C3200      C3201   1.412       .  A
C3201      C3202   1.407       .  A
C3201      N3206   1.438       .  S
C3202      H3207   1.084       .  S
N3203      H3223   1.045       .  S
N3203      H3224   1.046       .  S
C3205      C3208   1.400       .  A
C3205      C3212   1.414       .  A
N3206      H3221   1.046       .  S
N3206      H3222   1.046       .  S
C3208      C3209   1.402       .  A
C3208      H3213   1.084       .  S
C3209      C3210   1.417       .  A
C3209      N3214   1.440       .  S
C3210      C3211   1.407       .  A
C3211      C3212   1.417       .  A
C3211      H3215   1.083       .  S
C3212      N3216   1.437       .  S
N3214      H3217   1.046       .  S
N3214      H3218   1.046       .  S
N3216      H3219   1.046       .  S
N3216      H3220   1.045       .  S
C3225      C3226   1.416       .  A
C3225      C3230   1.407       .  A
C3226      C3227   1.406       .  A
C3226      N3231   1.438       .  S
C3227      C3228   1.401       .  A
C3227      H3232   1.084       .  S
C3228      C3233   1.484       .  S
C3228      C3229   1.410       .  A
C3229      C3230   1.411       .  A
C3229      N3234   1.438       .  S
C3230      H3235   1.083       .  S
N3231      H3251   1.046       .  S
N3231      H3252   1.046       .  S
C3233      C3236   1.405       .  A
C3233      C3240   1.407       .  A
N3234      H3249   1.046       .  S
N3234      H3250   1.044       .  S
C3236      C3237   1.415       .  A
C3236      H3241   1.083       .  S
C3237      C3238   1.414       .  A
C3237      N3242   1.437       .  S
C3238      C3239   1.407       .  A
C3239      C3240   1.401       .  A
C3239      H3243   1.084       .  S
C3240      N3244   1.439       .  S
N3242      H3245   1.046       .  S
N3242      H3246   1.046       .  S
N3244      H3247   1.046       .  S
N3244      H3248   1.044       .  S
C3253      C3254   1.415       .  A
C3253      C3258   1.405       .  A
C3254      C3255   1.404       .  A
C3254      N3259   1.438       .  S
C3255      C3256   1.402       .  A
C3255      H3260   1.084       .  S
C3256      C3261   1.489       .  S
C3256      C3257   1.413       .  A
C3257      C3258   1.408       .  A
C3257      N3262   1.438       .  S
C3258      H3263   1.083       .  S
N3259      H3279   1.045       .  S
N3259      H3280   1.046       .  S
C3261      C3264   1.403       .  A
C3261      C3268   1.411       .  A
N3262      H3277   1.046       .  S
N3262      H3278   1.046       .  S
C3264      C3265   1.410       .  A
C3264      H3269   1.084       .  S
C3265      C3266   1.418       .  A
C3265      N3270   1.438       .  S
C3266      C3267   1.407       .  A
C3267      C3268   1.403       .  A
C3267      H3271   1.083       .  S
C3268      N3272   1.439       .  S
N3270      H3273   1.046       .  S
N3270      H3274   1.046       .  S
N3272      H3275   1.046       .  S
N3272      H3276   1.046       .  S
C3281      C3282   1.415       .  A
C3281      C3286   1.406       .  A
C3282      C3283   1.405       .  A
C3282      N3287   1.438       .  S
C3283      C3284   1.403       .  A
C3283      H3288   1.084       .  S
C3284      C3289   1.489       .  S
C3284      C3285   1.411       .  A
C3285      C3286   1.407       .  A
C3285      N3290   1.437       .  S
C3286      H3291   1.084       .  S
N3287      H3307   1.045       .  S
N3287      H3308   1.046       .  S
C3289      C3292   1.402       .  A
C3289      C3296   1.410       .  A
N3290      H3305   1.046       .  S
N3290      H3306   1.046       .  S
C3292      C3293   1.405       .  A
C3292      H3297   1.084       .  S
C3293      C3294   1.418       .  A
C3293      N3298   1.438       .  S
C3294      C3295   1.407       .  A
C3295      C3296   1.408       .  A
C3295      H3299   1.083       .  S
C3296      N3300   1.437       .  S
N3298      H3301   1.046       .  S
N3298      H3302   1.045       .  S
N3300      H3303   1.046       .  S
N3300      H3304   1.046       .  S
C3309      C3310   1.412       .  A
C3309      C3314   1.404       .  A
C3310      C3311   1.405       .  A
C3310      N3315   1.438       .  S
C3311      C3312   1.402       .  A
C3311      H3316   1.084       .  S
C3312      C3317   1.480   1_556  S
C3312      C3313   1.409       .  A
C3313      C3314   1.403       .  A
C3313      N3318   1.438       .  S
C3314      H3319   1.084       .  S
N3315      H3335   1.046       .  S
N3315      H3336   1.046       .  S
C3317      C3320   1.401       .  A
C3317      C3324   1.407       .  A
N3318      H3333   1.046       .  S
N3318      H3334   1.046       .  S
C3320      C3321   1.406       .  A
C3320      H3325   1.084       .  S
C3321      C3322   1.417       .  A
C3321      N3326   1.438       .  S
C3322      C3323   1.407       .  A
C3323      C3324   1.404       .  A
C3323      H3327   1.084       .  S
C3324      N3328   1.438       .  S
N3326      H3329   1.046       .  S
N3326      H3330   1.045       .  S
N3328      H3331   1.046       .  S
N3328      H3332   1.046   1_554  S
C3337      C3338   1.410       .  A
C3337      C3342   1.403       .  A
C3338      C3339   1.401       .  A
C3338      N3343   1.438       .  S
C3339      C3340   1.400       .  A
C3339      H3344   1.084       .  S
C3340      C3345   1.480       .  S
C3340      C3341   1.411       .  A
C3341      C3342   1.410       .  A
C3341      N3346   1.437       .  S
C3342      H3347   1.084       .  S
N3343      H3363   1.045       .  S
N3343      H3364   1.046       .  S
C3345      C3348   1.403       .  A
C3345      C3352   1.407       .  A
N3346      H3361   1.046       .  S
N3346      H3362   1.045       .  S
C3348      C3349   1.413       .  A
C3348      H3353   1.083       .  S
C3349      C3350   1.416       .  A
C3349      N3354   1.437       .  S
C3350      C3351   1.407       .  A
C3351      C3352   1.400       .  A
C3351      H3355   1.084       .  S
C3352      N3356   1.439       .  S
N3354      H3357   1.046       .  S
N3354      H3358   1.046       .  S
N3356      H3359   1.046       .  S
N3356      H3360   1.045       .  S
C3365      C3366   1.413       .  A
C3365      C3370   1.404       .  A
C3366      C3367   1.401       .  A
C3366      N3371   1.439       .  S
C3367      C3368   1.399       .  A
C3367      H3372   1.084       .  S
C3368      C3373   1.470       .  S
C3368      C3369   1.407       .  A
C3369      C3370   1.404       .  A
C3369      N3374   1.438       .  S
C3370      H3375   1.084       .  S
N3371      H3391   1.046       .  S
N3371      H3392   1.046       .  S
C3373      C3376   1.401       .  A
C3373      C3380   1.407       .  A
N3374      H3389   1.046       .  S
N3374      H3390   1.046       .  S
C3376      C3377   1.406       .  A
C3376      H3381   1.084       .  S
C3377      C3378   1.412       .  A
C3377      N3382   1.438       .  S
C3378      C3379   1.403       .  A
C3379      C3380   1.398       .  A
C3379      H3383   1.084       .  S
C3380      N3384   1.439       .  S
N3382      H3385   1.046       .  S
N3382      H3386   1.045       .  S
N3384      H3387   1.046       .  S
N3384      H3388   1.045       .  S
