geometry optimzed in LAMMPS
_audit_creation_date              2020-12-01 
_audit_creation_method            'lammps2cif' 
_symmetry_space_group_name_H-M    'P1' 
_symmetry_Int_Tables_number       1 
_symmetry_cell_setting            triclinic 
loop_ 
_symmetry_equiv_pos_as_xyz 
  x,y,z 
_cell_length_a                    28.27393522 
_cell_length_b                    28.266939343177228 
_cell_length_c                    36.19304743164495 
_cell_angle_alpha                 90.10444841575466 
_cell_angle_beta                  89.85410249623882 
_cell_angle_gamma                 89.57266135900173 
loop_ 
_atom_site_label 
_atom_site_type_symbol 
_atom_site_fract_x 
_atom_site_fract_y 
_atom_site_fract_z 
_atom_site_charge 
O1          O  0.49658562  0.29513558  0.17242131    -0.82300
C2          C  0.60396429  0.12838309  0.16256672     0.97100
O3          O  0.56103417  0.13118930  0.15253791    -0.71400
O4          O  0.50276854  0.16612563  0.20070693    -0.75000
Al5        Al  0.51747709  0.18448523  0.15170333     1.49000
C6          C  0.49588061  0.19036375  0.22934789     0.92300
O7          O  0.60007442  0.25226786  0.23041698    -0.81200
O8          O  0.61430291  0.28845285  0.12563016    -0.74800
Al9        Al  0.54835815  0.27100321  0.19929210     1.90100
O10         O  0.65160689  0.24601948  0.18539477    -0.73900
O11         O  0.60049626  0.20368391  0.09706997    -0.73700
O12         O  0.63022433  0.16405500  0.16129164    -0.79400
O13         O  0.52433792  0.19530036  0.09996889    -0.77600
O14         O  0.56116189  0.22697375  0.16492165    -1.13700
O15         O  0.46625333  0.23011678  0.14944199    -0.72900
C16         C  0.46387581  0.27430200  0.15542949     0.97800
C17         C  0.64235971  0.24971127  0.21916590     0.94200
Al18       Al  0.61870272  0.22537129  0.14400364     1.55600
O19         O  0.50822982  0.23308542  0.23005180    -0.77500
C20         C  0.56162290  0.19815278  0.08117663     0.98400
C21         C  0.60769801  0.32369911  0.14664699     0.93300
O22         O  0.58544485  0.31935113  0.17676348    -0.82800
O23         O  0.89097156  0.20397504  0.34685582    -0.82300
C24         C  0.87822119  0.40116023  0.34250867     0.97100
O25         O  0.85356479  0.37629761  0.36402816    -0.71400
O26         O  0.81909472  0.31626112  0.31700728    -0.75000
Al27       Al  0.84825248  0.30860107  0.36293088     1.49000
C28         C  0.81697565  0.28300772  0.29404384     0.92300
O29         O  0.93647874  0.28911979  0.27325404    -0.81200
O30         O  0.99185760  0.28434427  0.37297211    -0.74800
Al31       Al  0.91323403  0.24949726  0.31216839     1.90100
O32         O  0.98338541  0.33283889  0.30712279    -0.73900
O33         O  0.93361243  0.34649553  0.40528395    -0.73700
O34         O  0.92033627  0.38892577  0.33570843    -0.79400
O35         O  0.87123100  0.30149160  0.41047122    -0.77600
O36         O  0.90516515  0.29745155  0.34324488    -1.13700
O37         O  0.82885180  0.24362367  0.36575914    -0.72900
C38         C  0.84999245  0.20460530  0.36090462     0.97800
C39         C  0.96993743  0.31833067  0.27589358     0.94200
Al40       Al  0.95334557  0.33528476  0.35461580     1.55600
O41         O  0.85127553  0.25425728  0.29046165    -0.77500
C42         C  0.90342989  0.32536403  0.42511914     0.98400
C43         C  0.00098872  0.24627105  0.35576662     0.93300
O44         O  0.97585065  0.23380548  0.32857090    -0.82800
O45         O  0.57256135  0.32636114  0.83850473    -0.82300
C46         C  0.58319364  0.12911923  0.83728266     0.97100
O47         O  0.61131855  0.15382731  0.85637037    -0.71400
O48         O  0.64430936  0.21456409  0.81001142    -0.75000
Al49       Al  0.61685529  0.22188773  0.85678309     1.49000
C50         C  0.64597743  0.24724695  0.78672727     0.92300
O51         O  0.52638337  0.23542261  0.76863977    -0.81200
O52         O  0.47655020  0.24962124  0.87175319    -0.74800
Al53       Al  0.55009774  0.27889229  0.80578030     1.90100
O54         O  0.47835203  0.20019899  0.80703751    -0.73900
O55         O  0.53287992  0.18499564  0.90201094    -0.73700
O56         O  0.54101545  0.14263729  0.83303574    -0.79400
O57         O  0.59675608  0.22764884  0.90615898    -0.77600
O58         O  0.55951109  0.23307400  0.83866215    -1.13700
O59         O  0.63450316  0.28778058  0.85956868    -0.72900
C60         C  0.61296949  0.32649572  0.85343296     0.97800
C61         C  0.49092833  0.20917988  0.77431338     0.94200
Al62       Al  0.51128358  0.19711643  0.85259848     1.55600
O63         O  0.61136961  0.27526583  0.78301264    -0.77500
C64         C  0.56444629  0.20429795  0.92132704     0.98400
C65         C  0.46506995  0.28485493  0.85210947     0.93300
O66         O  0.48768707  0.29452906  0.82284348    -0.82800
O67         O  0.98027611  0.23816992  0.67745507    -0.82300
C68         C  0.88556682  0.40653951  0.66830833     0.97100
O69         O  0.92768000  0.39241293  0.67209112    -0.71400
O70         O  0.99139880  0.33374695  0.69537923    -0.75000
Al71       Al  0.95629802  0.33787278  0.65101650     1.49000
C72         C  0.97949767  0.32419854  0.72813080     0.92300
O73         O  0.85971680  0.26003117  0.72302464    -0.81200
O74         O  0.83046461  0.24931135  0.64893478    -0.74800
Al75       Al  0.91915724  0.25472898  0.69755376     1.90100
O76         O  0.82672725  0.32264883  0.69846393    -0.73900
O77         O  0.86813476  0.30698180  0.60097661    -0.73700
O78         O  0.85698755  0.38229634  0.64942205    -0.79400
O79         O  0.93183162  0.35030219  0.60257452    -0.77600
O80         O  0.90864042  0.30182139  0.66610009    -1.13700
O81         O  0.99015893  0.28581803  0.63002466    -0.72900
C82         C  0.00166093  0.24903023  0.64782183     0.97800
C83         C  0.82607350  0.28967964  0.72164756     0.94200
Al84       Al  0.85043953  0.31431627  0.65045167     1.55600
O85         O  0.94546574  0.29648786  0.73410025    -0.77500
C86         C  0.90014947  0.32926578  0.58447560     0.98400
C87         C  0.85121449  0.20980538  0.65293212     0.93300
O88         O  0.89311931  0.20821723  0.66514996    -0.82800
O89         O  0.67662963  0.60376564  0.83798969    -0.82300
C90         C  0.87104678  0.62523812  0.84545511     0.97100
O91         O  0.84412221  0.64881210  0.86663424    -0.71400
O92         O  0.78523037  0.68272863  0.81880502    -0.75000
Al93       Al  0.77623202  0.65067514  0.86357642     1.49000
C94         C  0.75682828  0.68221583  0.79222301     0.92300
O95         O  0.77402323  0.56426981  0.77159247    -0.81200
O96         O  0.75813473  0.50746427  0.87097707    -0.74800
Al97       Al  0.72782184  0.58449386  0.80728203     1.90100
O98         O  0.81267787  0.51680834  0.80862247    -0.73900
O99         O  0.81573623  0.56577136  0.90692315    -0.73700
O100        O  0.86249614  0.58207654  0.83962098    -0.79400
O101        O  0.76720035  0.62589409  0.91116888    -0.77600
O102        O  0.77065035  0.59403481  0.84229722    -1.13700
O103        O  0.71006747  0.66517185  0.86366788    -0.72900
C104        C  0.67325583  0.64289278  0.85468680     0.97800
C105        C  0.80366625  0.53125295  0.77643146     0.94200
Al106      Al  0.80933211  0.54697877  0.85576534     1.55600
O107        O  0.73151425  0.64637834  0.78636106    -0.77500
C108        C  0.79103746  0.59372331  0.92642372     0.98400
C109        C  0.72340994  0.49693708  0.85051883     0.93300
O110        O  0.71400110  0.52111753  0.82199176    -0.82800
O111        O  0.76366142  0.00248066  0.66954680    -0.82300
C112        C  0.59508725  0.89986592  0.66316092     0.97100
O113        O  0.59794127  0.94256777  0.65245975    -0.71400
O114        O  0.63607399  0.99808916  0.70037166    -0.75000
Al115      Al  0.65208651  0.98463218  0.65085486     1.49000
C116        C  0.66137105  0.00251561  0.72860500     0.92300
O117        O  0.72330893  0.89652836  0.72541516    -0.81200
O118        O  0.75144429  0.88486131  0.61920382    -0.74800
Al119      Al  0.74016290  0.94931094  0.69505693     1.90100
O120        O  0.71348004  0.84686754  0.67984888    -0.73900
O121        O  0.66434595  0.90221824  0.59570811    -0.73700
O122        O  0.63025931  0.87254214  0.66118645    -0.79400
O123        O  0.66108628  0.97883477  0.59852293    -0.77600
O124        O  0.69424554  0.93915378  0.66213000    -1.13700
O125        O  0.69808351  0.03499139  0.64903485    -0.72900
C126        C  0.74211748  0.03714033  0.65535409     0.97800
C127        C  0.72056737  0.85471550  0.71337748     0.94200
Al128      Al  0.68988770  0.88212084  0.64069070     1.55600
O129        O  0.70371591  0.98825417  0.72816763    -0.77500
C130        C  0.66032420  0.94127882  0.57982021     0.98400
C131        C  0.78806019  0.88977205  0.63888815     0.93300
O132        O  0.78626576  0.91224120  0.66916036    -0.82800
O133        O  0.69140302  0.52841916  0.17644794    -0.82300
C134        C  0.85908808  0.63238266  0.16926304     0.97100
O135        O  0.85668824  0.58966667  0.15839783    -0.71400
O136        O  0.82078753  0.53354700  0.20705186    -0.75000
Al137      Al  0.80309164  0.54677112  0.15767205     1.49000
C138        C  0.79556891  0.52660090  0.23509984     0.92300
O139        O  0.73448829  0.63046577  0.23479922    -0.81200
O140        O  0.70116594  0.64460228  0.12934527    -0.74800
Al141      Al  0.71565777  0.57953257  0.20363953     1.90100
O142        O  0.74059019  0.68222471  0.18995154    -0.73900
O143        O  0.78660014  0.62916022  0.10273654    -0.73700
O144        O  0.82333152  0.65894292  0.16793132    -0.79400
O145        O  0.79205282  0.55254498  0.10566293    -0.77600
O146        O  0.76056943  0.59120839  0.17006215    -1.13700
O147        O  0.75738100  0.49622726  0.15597009    -0.72900
C148        C  0.71296108  0.49462116  0.16088819     0.97800
C149        C  0.73533642  0.67258591  0.22346291     0.94200
Al150      Al  0.76314321  0.64844108  0.14912676     1.55600
O151        O  0.75248700  0.53843114  0.23482262    -0.77500
C152        C  0.78933781  0.58981544  0.08683817     0.98400
C153        C  0.66535989  0.63974983  0.14991589     0.93300
O154        O  0.66840302  0.61803074  0.18036548    -0.82800
O155        O  0.78368871  0.92300362  0.34479688    -0.82300
C156        C  0.58604819  0.91340055  0.33753222     0.97100
O157        O  0.61066105  0.88838779  0.35908134    -0.71400
O158        O  0.67098865  0.85437561  0.31191778    -0.75000
Al159      Al  0.67844431  0.88211934  0.35841888     1.49000
C160        C  0.70491987  0.85079980  0.28967960     0.92300
O161        O  0.70250770  0.96701907  0.26877972    -0.81200
O162        O  0.70294814  0.02592101  0.36697439    -0.74800
Al163      Al  0.74009037  0.94483611  0.30871309     1.90100
O164        O  0.65594451  0.01469488  0.30048095    -0.73900
O165        O  0.64136174  0.96973131  0.39972396    -0.73700
O166        O  0.59916598  0.95483123  0.33020322    -0.79400
O167        O  0.68438529  0.90518459  0.40651646    -0.77600
O168        O  0.69073192  0.93846858  0.33881730    -1.13700
O169        O  0.74364157  0.86087154  0.36162812    -0.72900
C170        C  0.78288281  0.88144100  0.35749123     0.97800
C171        C  0.67203176  0.99974669  0.26997493     0.94200
Al172      Al  0.65271878  0.98738455  0.34879581     1.55600
O173        O  0.73602728  0.88260177  0.28750415    -0.77500
C174        C  0.66126575  0.93923637  0.42024427     0.98400
C175        C  0.74174739  0.03370795  0.35071150     0.93300
O176        O  0.75523309  0.00752958  0.32429847    -0.82800
O177        O  0.28954581  0.42697161  0.83911925    -0.82300
C178        C  0.09497023  0.41580324  0.83868537     0.97100
O179        O  0.11847786  0.39098894  0.86111636    -0.71400
O180        O  0.17716391  0.35538269  0.81277486    -0.75000
Al181      Al  0.18625290  0.38459441  0.85871619     1.49000
C182        C  0.20819467  0.35370908  0.78791630     0.92300
O183        O  0.20081935  0.47248494  0.76867708    -0.81200
O184        O  0.21150761  0.52636336  0.86924980    -0.74800
Al185      Al  0.24256221  0.44902981  0.80603693     1.90100
O186        O  0.16049861  0.52080101  0.80457305    -0.73900
O187        O  0.14988932  0.47033391  0.90289226    -0.73700
O188        O  0.10575480  0.45846956  0.83365078    -0.79400
O189        O  0.19483151  0.40728271  0.90676439    -0.77600
O190        O  0.19649162  0.44134903  0.83891983    -1.13700
O191        O  0.25141852  0.36543918  0.86000203    -0.72900
C192        C  0.28980797  0.38680631  0.85427397     0.97800
C193        C  0.17182772  0.50636020  0.77264540     0.94200
Al194      Al  0.15960994  0.49009184  0.85191179     1.55600
O195        O  0.23725534  0.38721108  0.78407876    -0.77500
C196        C  0.17174633  0.43994998  0.92225862     0.98400
C197        C  0.24800667  0.53543422  0.85031129     0.93300
O198        O  0.25838008  0.51127050  0.82193276    -0.82800
O199        O  0.19526495  0.03059525  0.66923185    -0.82300
C200        C  0.36392228  0.13172579  0.66464852     0.97100
O201        O  0.36197422  0.08905066  0.65373210    -0.71400
O202        O  0.32239595  0.03554914  0.70218304    -0.75000
Al203      Al  0.30765662  0.04694389  0.65242110     1.49000
C204        C  0.29631660  0.03105240  0.72995571     0.92300
O205        O  0.23544471  0.13712694  0.72430569    -0.81200
O206        O  0.20825902  0.14571524  0.61780510    -0.74800
Al207      Al  0.21854966  0.08377053  0.69470652     1.90100
O208        O  0.24611877  0.18604630  0.67816667    -0.73900
O209        O  0.29573157  0.12651605  0.59468734    -0.73700
O210        O  0.32955270  0.15955195  0.66014540    -0.79400
O211        O  0.30029340  0.05014271  0.60041790    -0.77600
O212        O  0.26520120  0.09291734  0.66206245    -1.13700
O213        O  0.26125314  0.99673803  0.65065179    -0.72900
C214        C  0.21676739  0.99559672  0.65534113     0.97800
C215        C  0.23901474  0.17863572  0.71181886     0.94200
Al216      Al  0.26993449  0.14913368  0.63935558     1.55600
O217        O  0.25377062  0.04473768  0.72877374    -0.77500
C218        C  0.30093578  0.08631089  0.58043840     0.98400
C219        C  0.17135532  0.14136546  0.63744823     0.93300
O220        O  0.17300259  0.12045661  0.66828130    -0.82800
O221        O  0.26720815  0.49474058  0.17153965    -0.82300
C222        C  0.10010282  0.38966966  0.16743722     0.97100
O223        O  0.10167409  0.43244282  0.15660056    -0.71400
O224        O  0.13893819  0.48873869  0.20422187    -0.75000
Al225      Al  0.15526634  0.47581760  0.15458136     1.49000
C226        C  0.16448484  0.49534278  0.23201643     0.92300
O227        O  0.22639122  0.39094831  0.22947952    -0.81200
O228        O  0.25737148  0.37827807  0.12330187    -0.74800
Al229      Al  0.24407739  0.44277874  0.19853529     1.90100
O230        O  0.21865351  0.34020411  0.18408448    -0.73900
O231        O  0.17123647  0.39431587  0.09805289    -0.73700
O232        O  0.13577147  0.36326134  0.16386553    -0.79400
O233        O  0.16478925  0.47068925  0.10239558    -0.77600
O234        O  0.19842722  0.43140223  0.16560792    -1.13700
O235        O  0.20079597  0.52689761  0.15220544    -0.72900
C236        C  0.24527912  0.52883004  0.15678315     0.97800
C237        C  0.22341845  0.34893332  0.21782139     0.94200
Al238      Al  0.19558979  0.37441239  0.14399348     1.55600
O239        O  0.20754812  0.48329339  0.23105712    -0.77500
C240        C  0.16771733  0.43399509  0.08284846     0.98400
C241        C  0.29346925  0.38250389  0.14354899     0.93300
O242        O  0.29110604  0.40467847  0.17392793    -0.82800
O243        O  0.17393924  0.09831739  0.34696239    -0.82300
C244        C  0.37102212  0.10886593  0.33783446     0.97100
O245        O  0.34691144  0.13385423  0.36006750    -0.71400
O246        O  0.28500030  0.17050123  0.31603713    -0.75000
Al247      Al  0.27887768  0.13984908  0.36132554     1.49000
C248        C  0.25156611  0.17380169  0.29348003     0.92300
O249        O  0.25668432  0.05700403  0.27015926    -0.81200
O250        O  0.25505493  0.99670190  0.36846398    -0.74800
Al251      Al  0.21824849  0.07792936  0.31050143     1.90100
O252        O  0.30112719  0.00723541  0.30136477    -0.73900
O253        O  0.31839578  0.05203107  0.40072658    -0.73700
O254        O  0.35809626  0.06731201  0.33069234    -0.79400
O255        O  0.27378300  0.11507323  0.40854064    -0.77600
O256        O  0.26718784  0.08399273  0.34062387    -1.13700
O257        O  0.21337340  0.15970827  0.36630311    -0.72900
C258        C  0.17438209  0.13875714  0.36184431     0.97800
C259        C  0.28610348  0.02324265  0.27094509     0.94200
Al260      Al  0.30525604  0.03476451  0.34983845     1.55600
O261        O  0.22186633  0.14074551  0.29043900    -0.77500
C262        C  0.29884435  0.08239508  0.42167658     0.98400
C263        C  0.21683437  0.98851459  0.35162514     0.93300
O264        O  0.20369824  0.01464291  0.32512940    -0.82800
O265        O  0.39306692  0.70704717  0.83834998    -0.82300
C266        C  0.37569288  0.90451237  0.83717116     0.97100
O267        O  0.35035887  0.87816620  0.85698779    -0.71400
O268        O  0.31790798  0.81714667  0.80995633    -0.75000
Al269      Al  0.34739855  0.81049057  0.85608482     1.49000
C270        C  0.31707543  0.78484710  0.78606193     0.92300
O271        O  0.43484195  0.79480041  0.76596530    -0.81200
O272        O  0.49092035  0.78772942  0.86525122    -0.74800
Al273      Al  0.41338991  0.75365465  0.80417312     1.90100
O274        O  0.48096918  0.83854933  0.80054063    -0.73900
O275        O  0.43325926  0.84831405  0.89932196    -0.73700
O276        O  0.41819770  0.89307367  0.83091994    -0.79400
O277        O  0.37010650  0.80449409  0.90425769    -0.77600
O278        O  0.40439058  0.80081359  0.83625381    -1.13700
O279        O  0.33087390  0.74525309  0.85908248    -0.72900
C280        C  0.35301985  0.70691194  0.85387356     0.97800
C281        C  0.46715342  0.82512923  0.76909598     0.94200
Al282      Al  0.45195074  0.83893501  0.84826794     1.55600
O283        O  0.35170267  0.75673330  0.78265980    -0.77500
C284        C  0.40263030  0.82782272  0.91905365     0.98400
C285        C  0.50072170  0.75068234  0.84698501     0.93300
O286        O  0.47613086  0.73918618  0.81937072    -0.82800
O287        O  0.98103943  0.79344319  0.67803261    -0.82300
C288        C  0.08297569  0.62625695  0.66551454     0.97100
O289        O  0.04079680  0.63802579  0.67284386    -0.71400
O290        O  0.97608808  0.69238048  0.70186569    -0.75000
Al291      Al  0.00574727  0.69075377  0.65418069     1.49000
C292        C  0.98772384  0.70906279  0.73290327     0.92300
O293        O  0.10400132  0.77528540  0.71874010    -0.81200
O294        O  0.12796425  0.78525578  0.64275316    -0.74800
Al295      Al  0.04291938  0.77913738  0.69578317     1.90100
O296        O  0.13811534  0.71409050  0.69230919    -0.73900
O297        O  0.08726836  0.72557952  0.59741667    -0.73700
O298        O  0.10727915  0.65232482  0.64476665    -0.79400
O299        O  0.02525229  0.68003141  0.60344679    -0.77600
O300        O  0.05255778  0.73037996  0.66520511    -1.13700
O301        O  0.96537493  0.74003803  0.63567122    -0.72900
C302        C  0.95630637  0.77922307  0.65121703     0.97800
C303        C  0.13864747  0.74690243  0.71584858     0.94200
Al304      Al  0.10989569  0.72021425  0.64578227     1.55600
O305        O  0.01889910  0.74066168  0.73511555    -0.77500
C306        C  0.05510152  0.70096211  0.58319226     0.98400
C307        C  0.10687627  0.82424835  0.64756161     0.93300
O308        O  0.06571556  0.82484541  0.66121067    -0.82800
O309        O  0.46111636  0.72939194  0.17147846    -0.82300
C310        C  0.35674529  0.89774480  0.16048444     0.97100
O311        O  0.40017552  0.89451765  0.15186574    -0.71400
O312        O  0.45595661  0.85826819  0.20047999    -0.75000
Al313      Al  0.44292038  0.84063220  0.15102459     1.49000
C314        C  0.46166634  0.83362466  0.22892469     0.92300
O315        O  0.35735417  0.77419956  0.22725811    -0.81200
O316        O  0.34454835  0.73653218  0.12314517    -0.74800
Al317      Al  0.40912441  0.75430803  0.19732934     1.90100
O318        O  0.30648773  0.78189350  0.18194184    -0.73900
O319        O  0.36256288  0.82020590  0.09400860    -0.73700
O320        O  0.33003193  0.86262931  0.15697516    -0.79400
O321        O  0.43822484  0.83131502  0.09888877    -0.77600
O322        O  0.39811595  0.79840357  0.16280168    -1.13700
O323        O  0.49345883  0.79399713  0.14944018    -0.72900
C324        C  0.49517775  0.74987081  0.15585918     0.97800
C325        C  0.31545296  0.77769340  0.21568578     0.94200
Al326      Al  0.34133102  0.80050945  0.14068737     1.55600
O327        O  0.44892777  0.79109262  0.22890527    -0.77500
C328        C  0.40195497  0.82749950  0.07916231     0.98400
C329        C  0.35011853  0.70158838  0.14454279     0.93300
O330        O  0.37193601  0.70634467  0.17467614    -0.82800
O331        O  0.06623768  0.81834719  0.34381701    -0.82300
C332        C  0.08325127  0.62065396  0.34096913     0.97100
O333        O  0.10844829  0.64662155  0.36124002    -0.71400
O334        O  0.14082183  0.70736230  0.31449138    -0.75000
Al335      Al  0.11168484  0.71457585  0.36054524     1.49000
C336        C  0.14298513  0.74043875  0.29155370     0.92300
O337        O  0.02572867  0.73091942  0.27057675    -0.81200
O338        O  0.96714848  0.73710224  0.36937585    -0.74800
Al339      Al  0.04638147  0.77186721  0.30915073     1.90100
O340        O  0.97875532  0.68698643  0.30446760    -0.73900
O341        O  0.02567952  0.67692698  0.40369649    -0.73700
O342        O  0.04092398  0.63242415  0.33481913    -0.79400
O343        O  0.08881605  0.72085343  0.40852974    -0.77600
O344        O  0.05479447  0.72454771  0.34088689    -1.13700
O345        O  0.12891525  0.78030801  0.36353316    -0.72900
C346        C  0.10680037  0.81879611  0.35838470     0.97800
C347        C  0.99281290  0.70117171  0.27326027     0.94200
Al348      Al  0.00707646  0.68629002  0.35245143     1.55600
O349        O  0.10872124  0.76906144  0.28812070    -0.77500
C350        C  0.05643562  0.69738850  0.42340536     0.98400
C351        C  0.95725532  0.77382892  0.35085438     0.93300
O352        O  0.98297051  0.78594839  0.32392574    -0.82800
C353        C  0.27508968  0.77300341  0.24028194    -0.06000
C354        C  0.27131914  0.73212187  0.26160827    -0.33400
C355        C  0.22811472  0.72004919  0.27755687     0.35900
C356        C  0.18789664  0.74933616  0.27216574    -0.06300
C357        C  0.19257619  0.79123404  0.25177756    -0.33300
C358        C  0.23567776  0.80295003  0.23570941     0.35800
H359        H  0.30123091  0.70815181  0.26421848     0.16100
O360        O  0.22551517  0.67895154  0.29749037    -0.60800
H361        H  0.16283209  0.81516865  0.24821910     0.16100
O362        O  0.23908330  0.84367328  0.21533751    -0.60900
H363        H  0.22483882  0.83611550  0.19105083     0.43100
H364        H  0.23612837  0.68747431  0.32272671     0.43100
C365        C  0.05422088  0.69610333  0.54245717    -0.06000
C366        C  0.09630100  0.70409648  0.52297667    -0.33400
C367        C  0.09747372  0.70314202  0.48454431     0.35900
C368        C  0.05584011  0.69414899  0.46429276    -0.06300
C369        C  0.01391404  0.68412073  0.48365804    -0.33300
C370        C  0.01286585  0.68510493  0.52252076     0.35800
H371        H  0.12884845  0.71136602  0.53762136     0.16100
O372        O  0.14004769  0.71001357  0.46710936    -0.60800
H373        H  0.98163828  0.67686770  0.46868141     0.16100
O374        O  0.97112195  0.67632683  0.54053426    -0.60900
H375        H  0.95733992  0.70793404  0.54601016     0.43100
H376        H  0.14480528  0.74474987  0.46717929     0.43100
C377        C  0.40341756  0.83132277  0.95986337    -0.06000
C378        C  0.44612543  0.83641853  0.97924110    -0.33400
C379        C  0.44674707  0.83592294  0.01814279     0.35900
C380        C  0.40408861  0.83074618  0.03815546    -0.06300
C381        C  0.36149627  0.82751780  0.01841280    -0.33300
C382        C  0.36087733  0.82767732  0.97996520     0.35800
H383        H  0.47916687  0.83951709  0.96423988     0.16100
O384        O  0.48910758  0.84051528  0.03610824    -0.60800
H385        H  0.32798947  0.82441455  0.03275880     0.16100
O386        O  0.31803623  0.82563184  0.96228479    -0.60900
H387        H  0.30922842  0.79172437  0.96247067     0.43100
H388        H  0.50128976  0.80776096  0.03910791     0.43100
C389        C  0.27290059  0.77660220  0.76543734    -0.06000
C390        C  0.23465845  0.80803831  0.77037414    -0.33400
C391        C  0.19010280  0.79795694  0.75597773     0.35900
C392        C  0.18285150  0.75546906  0.73636583    -0.06300
C393        C  0.22117379  0.72413447  0.73131709    -0.33300
C394        C  0.26578887  0.73438070  0.74544367     0.35800
H395        H  0.23900117  0.84050982  0.78591319     0.16100
O396        O  0.15414931  0.83017208  0.76111562    -0.60800
H397        H  0.21692507  0.69168696  0.71574555     0.16100
O398        O  0.30199406  0.70263779  0.73954208    -0.60900
H399        H  0.29930263  0.67920991  0.75975202     0.43100
H400        H  0.15798249  0.85366771  0.74098911     0.43100
C401        C  0.18701779  0.94732567  0.36139309    -0.06000
C402        C  0.13877085  0.94859500  0.35227472    -0.33400
C403        C  0.11084074  0.90805519  0.35461225     0.35900
C404        C  0.13119659  0.86452548  0.36546009    -0.06300
C405        C  0.17842360  0.86431540  0.37791388    -0.33300
C406        C  0.20620716  0.90527934  0.37613867     0.35800
H407        H  0.12284627  0.98092618  0.34190788     0.16100
O408        O  0.06447992  0.91096141  0.34381902    -0.60800
H409        H  0.19487626  0.83167323  0.38709543     0.16100
O410        O  0.25262965  0.90302288  0.38698181    -0.60900
H411        H  0.26980947  0.88803693  0.36604156     0.43100
H412        H  0.04732872  0.92388522  0.36558319     0.43100
C413        C  0.30206425  0.00038665  0.23629720    -0.06000
C414        C  0.34986156  0.00210842  0.22581859    -0.33400
C415        C  0.36719934  0.97366296  0.19682020     0.35900
C416        C  0.33724171  0.94067256  0.17945995    -0.06300
C417        C  0.28846607  0.94280873  0.18761192    -0.33300
C418        C  0.27088852  0.97233296  0.21572384     0.35800
H419        H  0.37408804  0.02445952  0.24092855     0.16100
O420        O  0.41408663  0.97621086  0.18748445    -0.60800
H421        H  0.26419847  0.91911238  0.17392288     0.16100
O422        O  0.22370403  0.97100933  0.22458065    -0.60900
H423        H  0.22110563  0.94721509  0.24458671     0.43100
H424        H  0.41530844  0.99825750  0.16624344     0.43100
C425        C  0.14382285  0.51953822  0.26515584    -0.06000
C426        C  0.17322458  0.54365101  0.29001954    -0.33400
C427        C  0.15405695  0.57321645  0.31765183     0.35900
C428        C  0.10450037  0.57943171  0.32079472    -0.06300
C429        C  0.07532677  0.55125898  0.29858009    -0.33300
C430        C  0.09439214  0.52214419  0.27079916     0.35800
H431        H  0.21129267  0.54175175  0.28679728     0.16100
O432        O  0.18432438  0.59837777  0.33957062    -0.60800
H433        H  0.03723238  0.55384899  0.30120011     0.16100
O434        O  0.06409729  0.49710634  0.24882843    -0.60900
H435        H  0.05168398  0.52029686  0.23075924     0.43100
H436        H  0.19158443  0.57718679  0.36064980     0.43100
C437        C  0.27278578  0.57186584  0.14636481    -0.06000
C438        C  0.32218042  0.57168259  0.15156700    -0.33400
C439        C  0.34865863  0.61312084  0.14796279     0.35900
C440        C  0.32646213  0.65579338  0.13766064    -0.06300
C441        C  0.27795113  0.65540350  0.12930054    -0.33300
C442        C  0.25099589  0.61413944  0.13400085     0.35800
H443        H  0.34033419  0.53977101  0.16037034     0.16100
O444        O  0.39614798  0.61193228  0.15573771    -0.60800
H445        H  0.26005530  0.68811426  0.12205478     0.16100
O446        O  0.20315212  0.61631432  0.12804932    -0.60900
H447        H  0.18942904  0.62851670  0.15147909     0.43100
H448        H  0.39825851  0.61233839  0.18307578     0.43100
C449        C  0.22659947  0.30773814  0.24197164    -0.06000
C450        C  0.19869209  0.26859765  0.23284092    -0.33400
C451        C  0.20745758  0.22446567  0.24827783     0.35900
C452        C  0.24442280  0.21887180  0.27387131    -0.06300
C453        C  0.27165055  0.25855685  0.28381622    -0.33300
C454        C  0.26279634  0.30287649  0.26809748     0.35800
H455        H  0.17095723  0.27188966  0.21235391     0.16100
O456        O  0.17965198  0.18717498  0.23793761    -0.60800
H457        H  0.29989957  0.25536260  0.30385306     0.16100
O458        O  0.29166427  0.34014246  0.27648584    -0.60900
H459        H  0.27569345  0.35682279  0.29721835     0.43100
H460        H  0.19689862  0.17168330  0.21726109     0.43100
C461        C  0.13322941  0.86911132  0.64117381    -0.06000
C462        C  0.18268206  0.86733708  0.63609171    -0.33400
C463        C  0.21032695  0.90833070  0.63850914     0.35900
C464        C  0.18877868  0.95245716  0.64620432    -0.06300
C465        C  0.13899885  0.95466602  0.64800032    -0.33300
C466        C  0.11140593  0.91379353  0.64520823     0.35800
H467        H  0.20056794  0.83364626  0.63228269     0.16100
O468        O  0.25846415  0.90433454  0.63469698    -0.60800
H469        H  0.12114657  0.98817784  0.65276965     0.16100
O470        O  0.06321521  0.91794203  0.64799659    -0.60900
H471        H  0.05229967  0.92459420  0.62249264     0.43100
H472        H  0.27027670  0.89569182  0.65958234     0.43100
C473        C  0.31585689  0.00715879  0.76325666    -0.06000
C474        C  0.28595412  0.98077797  0.78621965    -0.33400
C475        C  0.30462403  0.95018956  0.81311599     0.35900
C476        C  0.35419283  0.94595440  0.81781214    -0.06300
C477        C  0.38351236  0.97652339  0.79777838    -0.33300
C478        C  0.36504195  0.00595722  0.77015421     0.35800
H479        H  0.24810321  0.98123120  0.78160421     0.16100
O480        O  0.27412631  0.92174325  0.83226881    -0.60800
H481        H  0.42142577  0.97542938  0.80182687     0.16100
O482        O  0.39568026  0.03250308  0.74945514    -0.60900
H483        H  0.40819273  0.01072740  0.73020098     0.43100
H484        H  0.26420961  0.94068411  0.85405978     0.43100
C485        C  0.30632538  0.08304844  0.53980885    -0.06000
C486        C  0.30635300  0.12540295  0.51963584    -0.33400
C487        C  0.30599643  0.12512465  0.48133887     0.35900
C488        C  0.30575713  0.08188861  0.46193534    -0.06300
C489        C  0.30877818  0.03927207  0.48163807    -0.33300
C490        C  0.30871538  0.03956917  0.52047593     0.35800
H491        H  0.30530358  0.15939182  0.53351440     0.16100
O492        O  0.30454809  0.16768945  0.46314370    -0.60800
H493        H  0.30900648  0.00579107  0.46701227     0.16100
O494        O  0.31014035  0.99733916  0.53904155    -0.60900
H495        H  0.27667199  0.98745293  0.54128811     0.43100
H496        H  0.33745053  0.17330994  0.45482313     0.43100
C497        C  0.10541303  0.58522410  0.68495333    -0.06000
C498        C  0.07826399  0.56051547  0.71081713    -0.33400
C499        C  0.09956467  0.53494353  0.73945725     0.35900
C500        C  0.14902115  0.52894827  0.74022819    -0.06300
C501        C  0.17607843  0.54744401  0.71111070    -0.33300
C502        C  0.15482874  0.57647557  0.68406353     0.35800
H503        H  0.04023478  0.56364195  0.71033329     0.16100
O504        O  0.07205189  0.51860064  0.76798103    -0.60800
H505        H  0.21410086  0.54237227  0.71086358     0.16100
O506        O  0.18286463  0.59720595  0.65778044    -0.60900
H507        H  0.19795644  0.62433948  0.67038499     0.43100
H508        H  0.04835263  0.49743064  0.75659542     0.43100
C509        C  0.27794077  0.57632430  0.85952062    -0.06000
C510        C  0.25730324  0.61731271  0.87448487    -0.33400
C511        C  0.28251377  0.65975506  0.87562457     0.35900
C512        C  0.32954635  0.66134299  0.86216346    -0.06300
C513        C  0.35153806  0.61894680  0.85098097    -0.33300
C514        C  0.32614863  0.57681033  0.84944886     0.35800
H515        H  0.22047334  0.61739888  0.88285043     0.16100
O516        O  0.25995064  0.69978403  0.88827778    -0.60800
H517        H  0.38774521  0.61885744  0.84110524     0.16100
O518        O  0.34820371  0.53686874  0.83611335    -0.60900
H519        H  0.35705571  0.51834670  0.85831916     0.43100
H520        H  0.24083321  0.71134506  0.86713677     0.43100
C521        C  0.16984844  0.44044571  0.96336185    -0.06000
C522        C  0.18567539  0.39999478  0.98228125    -0.33400
C523        C  0.18538554  0.39787803  0.02072278     0.35900
C524        C  0.16822829  0.43650899  0.04177942    -0.03100
C525        C  0.15304604  0.47751234  0.02308461    -0.33300
C526        C  0.15354734  0.47961003  0.98419060     0.35800
H527        H  0.19870093  0.36936909  0.96723086     0.16100
O528        O  0.20271585  0.35773160  0.03730350    -0.60800
H529        H  0.14056326  0.50795337  0.03860752     0.16100
O530        O  0.13939348  0.52050349  0.96702874    -0.60900
H531        H  0.10461763  0.51766857  0.96430372     0.43100
H532        H  0.23693342  0.36361648  0.04089380     0.43100
C533        C  0.21413144  0.30972460  0.76638618    -0.06000
C534        C  0.25850525  0.29962440  0.75065101    -0.33400
C535        C  0.26790461  0.25547057  0.73494716     0.35900
C536        C  0.23295097  0.22037844  0.73511520    -0.06300
C537        C  0.18843337  0.23026547  0.75031874    -0.33300
C538        C  0.17866325  0.27474752  0.76565176     0.35800
H539        H  0.28647510  0.32561448  0.75120171     0.16100
O540        O  0.31108105  0.24714973  0.71871032    -0.60800
H541        H  0.16058536  0.20419043  0.74879968     0.16100
O542        O  0.13433245  0.28365212  0.77962716    -0.60900
H543        H  0.11611931  0.29712984  0.75870930     0.43100
H544        H  0.33177022  0.23587499  0.73900584     0.43100
C545        C  0.54503757  0.89276809  0.31738556    -0.06000
C546        C  0.51722598  0.92233437  0.29496516    -0.33400
C547        C  0.48832670  0.90362205  0.26722029     0.35900
C548        C  0.48560368  0.85425561  0.26187073    -0.06300
C549        C  0.50908074  0.82453647  0.28708066    -0.33300
C550        C  0.53872017  0.84329256  0.31452265     0.35800
H551        H  0.51991639  0.96040799  0.29743520     0.16100
O552        O  0.46348978  0.93413690  0.24509253    -0.60800
H553        H  0.50674275  0.78646667  0.28423093     0.16100
O554        O  0.56267769  0.81277672  0.33735451    -0.60900
H555        H  0.58900206  0.79969253  0.32224915     0.43100
H556        H  0.48706060  0.94679711  0.22746749     0.43100
C557        C  0.82831087  0.85515988  0.36311211    -0.06000
C558        C  0.87092011  0.87715738  0.35323434    -0.33400
C559        C  0.91331677  0.85149634  0.35101076     0.35900
C560        C  0.91432526  0.80268454  0.35904249    -0.06300
C561        C  0.87259032  0.78110322  0.37130679    -0.33300
C562        C  0.82974142  0.80669732  0.37300356     0.35800
H563        H  0.87123033  0.91415794  0.34548153     0.16100
O564        O  0.95343825  0.87438375  0.33978348    -0.60800
H565        H  0.87254584  0.74363683  0.37757252     0.16100
O566        O  0.78934592  0.78344464  0.38315043    -0.60900
H567        H  0.77824835  0.76750698  0.36036761     0.43100
H568        H  0.96857182  0.88528123  0.36292412     0.43100
C569        C  0.72631245  0.71245479  0.24755392    -0.06000
C570        C  0.68125971  0.73330110  0.24558337    -0.33400
C571        C  0.67401083  0.77961209  0.25758919     0.35900
C572        C  0.71234783  0.80550557  0.27137943    -0.06300
C573        C  0.75733159  0.78441486  0.27367903    -0.33300
C574        C  0.76442539  0.73795033  0.26190143     0.35800
H575        H  0.65228849  0.71444081  0.23280476     0.16100
O576        O  0.62972902  0.79953802  0.25510216    -0.60800
H577        H  0.78678342  0.80369101  0.28532423     0.16100
O578        O  0.80907690  0.71866167  0.26249618    -0.60900
H579        H  0.81171462  0.70294703  0.28688083     0.43100
H580        H  0.62966174  0.81718365  0.23145826     0.43100
C581        C  0.90224783  0.65117986  0.18743708    -0.06000
C582        C  0.93437130  0.61983749  0.20431645    -0.33400
C583        C  0.96646894  0.63616993  0.23089017     0.35900
C584        C  0.96782752  0.68455427  0.24007000    -0.06300
C585        C  0.93922896  0.71645328  0.22071640    -0.33300
C586        C  0.90649227  0.70026752  0.19476781     0.35800
H587        H  0.93214802  0.58218488  0.19911100     0.16100
O588        O  0.99436556  0.60420482  0.24931028    -0.60800
H589        H  0.93978992  0.75375010  0.22770718     0.16100
O590        O  0.87630693  0.73259169  0.17900842    -0.60900
H591        H  0.88921104  0.73819292  0.15389496     0.43100
H592        H  0.02643454  0.60818194  0.23881081     0.43100
C593        C  0.53791336  0.72098791  0.14677029    -0.06000
C594        C  0.53640877  0.67172414  0.15262669    -0.33400
C595        C  0.57729498  0.64387642  0.15051588     0.35900
C596        C  0.62077373  0.66470260  0.14160227    -0.06300
C597        C  0.62200491  0.71301945  0.13267873    -0.33300
C598        C  0.58113904  0.74134421  0.13565230     0.35800
H599        H  0.50376451  0.65479252  0.16077841     0.16100
O600        O  0.57489192  0.59686497  0.15970303    -0.60800
H601        H  0.65547750  0.72969511  0.12643853     0.16100
O602        O  0.58458060  0.78907301  0.12955561    -0.60900
H603        H  0.59638734  0.80249340  0.15310182     0.43100
H604        H  0.57857016  0.57943446  0.13605023     0.43100
C605        C  0.65612138  0.94155965  0.53891061    -0.06000
C606        C  0.65349094  0.98439177  0.51922571    -0.33400
C607        C  0.65376876  0.98457033  0.48038082     0.35900
C608        C  0.65674110  0.94152811  0.46079938    -0.06300
C609        C  0.65785380  0.89894463  0.48042129    -0.33300
C610        C  0.65717467  0.89850186  0.51881558     0.35800
H611        H  0.65245495  0.01782027  0.53388959     0.16100
O612        O  0.65287043  0.02691400  0.46195825    -0.60800
H613        H  0.65966342  0.86541805  0.46586165     0.16100
O614        O  0.65929314  0.85543327  0.53620473    -0.60900
H615        H  0.62596833  0.84516189  0.53852999     0.43100
H616        H  0.68649975  0.03608668  0.45933500     0.43100
C617        C  0.55223739  0.88193603  0.68203755    -0.06000
C618        C  0.52656356  0.91239940  0.70539589    -0.33400
C619        C  0.49632416  0.89411010  0.73247036     0.35900
C620        C  0.49064407  0.84488221  0.73614208    -0.06300
C621        C  0.51268106  0.81463859  0.71062688    -0.33300
C622        C  0.54344030  0.83276527  0.68380310     0.35800
H623        H  0.53280437  0.95015899  0.70475025     0.16100
O624        O  0.47400102  0.92458315  0.75633361    -0.60800
H625        H  0.50866639  0.77668022  0.71310886     0.16100
O626        O  0.56744376  0.80174731  0.66126589    -0.60900
H627        H  0.54875441  0.80063511  0.63810210     0.43100
H628        H  0.44187889  0.92882512  0.74584067     0.43100
C629        C  0.83259197  0.86435608  0.63023022    -0.06000
C630        C  0.87520912  0.88552863  0.64048612    -0.33400
C631        C  0.91633626  0.85851276  0.64504430     0.35900
C632        C  0.91567559  0.80911497  0.63925796    -0.06300
C633        C  0.87412171  0.78845397  0.62564997    -0.33300
C634        C  0.83250700  0.81559384  0.62162034     0.35800
H635        H  0.87586627  0.92280558  0.64755283     0.16100
O636        O  0.95644473  0.88052427  0.65719867    -0.60800
H637        H  0.87279606  0.75061705  0.62098074     0.16100
O638        O  0.79110645  0.79324909  0.61282215    -0.60900
H639        H  0.77867985  0.78100829  0.63659464     0.43100
H640        H  0.97094754  0.89411274  0.63467782     0.43100
C641        C  0.79027598  0.59030384  0.96744367    -0.06000
C642        C  0.76879539  0.62710411  0.98762911    -0.33400
C643        C  0.76774752  0.62662881  0.02612786     0.35900
C644        C  0.78857328  0.58878980  0.04582053    -0.06300
C645        C  0.80869403  0.55094927  0.02585042    -0.33300
C646        C  0.80967130  0.55148093  0.98695904     0.35800
H647        H  0.75271998  0.65695507  0.97358125     0.16100
O648        O  0.74458883  0.66276315  0.04419025    -0.60800
H649        H  0.82431703  0.52125860  0.04038662     0.16100
O650        O  0.82984836  0.51402119  0.96848951    -0.60900
H651        H  0.80332972  0.49240064  0.96299394     0.43100
H652        H  0.76690969  0.68967138  0.04403506     0.43100
C653        C  0.74950251  0.72588134  0.77053980    -0.06000
C654        C  0.77374535  0.76746825  0.78043056    -0.33400
C655        C  0.76304306  0.81075957  0.76356780     0.35900
C656        C  0.72738777  0.81296248  0.73673299    -0.06300
C657        C  0.70329828  0.77160130  0.72685833    -0.33300
C658        C  0.71408362  0.72843312  0.74328545     0.35800
H659        H  0.80090222  0.76661687  0.80147432     0.16100
O660        O  0.78862068  0.85014891  0.77260010    -0.60800
H661        H  0.67638860  0.77254526  0.70556592     0.16100
O662        O  0.68999308  0.68898817  0.73207388    -0.60900
H663        H  0.65970744  0.68988344  0.74597052     0.43100
H664        H  0.81472107  0.85121380  0.75425767     0.43100
C665        C  0.90901188  0.64888191  0.82356755    -0.06000
C666        C  0.93841024  0.62075431  0.80108316    -0.33400
C667        C  0.96564656  0.64073638  0.77297278     0.35900
C668        C  0.96471864  0.68972176  0.76657130    -0.06300
C669        C  0.93832427  0.71868233  0.79061928    -0.33300
C670        C  0.91056749  0.69868582  0.81897036     0.35800
H671        H  0.93865140  0.58263496  0.80400732     0.16100
O672        O  0.99266089  0.61168275  0.75126163    -0.60800
H673        H  0.93713729  0.75656498  0.78618455     0.16100
O674        O  0.88243430  0.72794261  0.83995878    -0.60900
H675        H  0.90323076  0.73950871  0.86005779     0.43100
H676        H  0.02476191  0.61338797  0.76219991     0.43100
C677        C  0.62621144  0.66564319  0.86049538    -0.06000
C678        C  0.62380488  0.71138988  0.87596356    -0.33400
C679        C  0.58229847  0.73866333  0.87396973     0.35900
C680        C  0.54209521  0.72040908  0.85627973    -0.06300
C681        C  0.54321982  0.67326464  0.84371129    -0.33300
C682        C  0.58457113  0.64591524  0.84577485     0.35800
H683        H  0.65507009  0.72742600  0.88766231     0.16100
O684        O  0.58299254  0.78454168  0.88629518    -0.60800
H685        H  0.51238751  0.65807661  0.83064557     0.16100
O686        O  0.58456438  0.60134404  0.83070369    -0.60900
H687        H  0.57787866  0.57981022  0.85164240     0.43100
H688        H  0.57316988  0.78293050  0.91256631     0.43100
C689        C  0.12646630  0.16557338  0.62791032    -0.06000
C690        C  0.08376291  0.14367101  0.63742579    -0.33400
C691        C  0.04192447  0.17007180  0.64112274     0.35900
C692        C  0.04223886  0.21936077  0.63560803    -0.06300
C693        C  0.08393322  0.24069674  0.62288142    -0.33300
C694        C  0.12595942  0.21419068  0.61914949     0.35800
H695        H  0.08349602  0.10643230  0.64451403     0.16100
O696        O  0.00141562  0.14778502  0.65221424    -0.60800
H697        H  0.08494706  0.27863664  0.61875646     0.16100
O698        O  0.16735220  0.23732554  0.61168216    -0.60900
H699        H  0.16913934  0.23893507  0.58439121     0.43100
H700        H  0.98948573  0.13179576  0.62970465     0.43100
C701        C  0.00685040  0.34672459  0.75842142    -0.06000
C702        C  0.04341499  0.37734430  0.74817679    -0.33400
C703        C  0.07155262  0.39910940  0.77440880     0.35900
C704        C  0.06244885  0.39309333  0.81227730    -0.06300
C705        C  0.02637792  0.36214538  0.82321539    -0.33300
C706        C  0.99832577  0.33914697  0.79648139     0.35800
H707        H  0.05165001  0.38377162  0.71937528     0.16100
O708        O  0.10965202  0.42468693  0.76257680    -0.60800
H709        H  0.02006257  0.35577398  0.85230244     0.16100
O710        O  0.96367722  0.30877300  0.80784986    -0.60900
H711        H  0.93536701  0.32900061  0.81203177     0.43100
H712        H  0.13240379  0.40121218  0.75236520     0.43100
C713        C  0.86845665  0.44801394  0.69011877    -0.06000
C714        C  0.89436736  0.46123486  0.72151665    -0.33400
C715        C  0.87423009  0.48997386  0.74889276     0.35900
C716        C  0.82779399  0.50770249  0.74483215    -0.06300
C717        C  0.80350908  0.49862367  0.71177928    -0.33300
C718        C  0.82337655  0.46877043  0.68460196     0.35800
H719        H  0.92920817  0.44634080  0.72646907     0.16100
O720        O  0.89999115  0.49964073  0.78005271    -0.60800
H721        H  0.76795548  0.51229118  0.70798229     0.16100
O722        O  0.79737794  0.45822078  0.65378844    -0.60900
H723        H  0.80665631  0.48217099  0.63518435     0.43100
H724        H  0.89741053  0.47098365  0.79568290     0.43100
C725        C  0.76922696  0.08131561  0.64813297    -0.06000
C726        C  0.81897804  0.07925451  0.64649414    -0.33400
C727        C  0.84621912  0.12054575  0.64576255     0.35900
C728        C  0.82405678  0.16539021  0.64673608    -0.06300
C729        C  0.77424757  0.16743262  0.64602974    -0.33300
C730        C  0.74696840  0.12613399  0.64697493     0.35800
H731        H  0.83708785  0.04534361  0.64697989     0.16100
O732        O  0.89453511  0.11642566  0.64544472    -0.60800
H733        H  0.75608469  0.20130334  0.64690142     0.16100
O734        O  0.69866253  0.13031708  0.64888724    -0.60900
H735        H  0.69114559  0.13154522  0.67565971     0.43100
H736        H  0.90350555  0.11736895  0.61896677     0.43100
C737        C  0.46161774  0.18856503  0.74401146    -0.06000
C738        C  0.41837732  0.16803883  0.75424257    -0.33400
C739        C  0.38834496  0.14783121  0.72827978     0.35900
C740        C  0.40088609  0.14711818  0.69074715    -0.06300
C741        C  0.44393078  0.16749461  0.67970764    -0.33300
C742        C  0.47444778  0.18807390  0.70618264     0.35800
H743        H  0.40661165  0.16858351  0.78275023     0.16100
O744        O  0.34448273  0.13235410  0.73926883    -0.60800
H745        H  0.45323587  0.16859282  0.65067852     0.16100
O746        O  0.51575902  0.20849909  0.69469117    -0.60900
H747        H  0.53865975  0.18195855  0.69213773     0.43100
H748        H  0.34965191  0.11126576  0.76075782     0.43100
C749        C  0.42274020  0.31340049  0.86112129    -0.06000
C750        C  0.38161608  0.29107050  0.87359818    -0.33400
C751        C  0.33814636  0.31524763  0.87375483     0.35900
C752        C  0.33566654  0.36294841  0.86201984    -0.06300
C753        C  0.37784210  0.38619746  0.85283220    -0.33300
C754        C  0.42094345  0.36181808  0.85220439     0.35800
H755        H  0.38245859  0.25382256  0.88062765     0.16100
O756        O  0.29817489  0.29109789  0.88366487    -0.60800
H757        H  0.37724983  0.42285970  0.84415739     0.16100
O758        O  0.46086546  0.38521147  0.84120762    -0.60900
H759        H  0.47735762  0.39338291  0.86446632     0.43100
H760        H  0.28834482  0.27393158  0.86105733     0.43100
C761        C  0.69126258  0.25694217  0.76813391    -0.06000
C762        C  0.70139256  0.30364518  0.75772994    -0.33400
C763        C  0.74634766  0.31585324  0.74499118     0.35900
C764        C  0.78220281  0.28106167  0.74251260    -0.06300
C765        C  0.77233030  0.23460951  0.75368489    -0.33300
C766        C  0.72744788  0.22243632  0.76647299     0.35800
H767        H  0.67473029  0.33120366  0.76033120     0.16100
O768        O  0.75501165  0.36198399  0.73547956    -0.60800
H769        H  0.79891025  0.20697152  0.75111964     0.16100
O770        O  0.71900637  0.17638295  0.77628840    -0.60900
H771        H  0.73168377  0.17312177  0.80169653     0.43100
H772        H  0.74117040  0.36599900  0.71052373     0.43100
C773        C  0.64105709  0.02667908  0.76168984    -0.06000
C774        C  0.59181219  0.03327152  0.76420874    -0.33400
C775        C  0.57178594  0.06280329  0.79120430     0.35900
C776        C  0.60114875  0.08725319  0.81629053    -0.06300
C777        C  0.64998018  0.07724626  0.81585501    -0.33300
C778        C  0.66991961  0.04714077  0.78907134     0.35800
H779        H  0.56863926  0.01710934  0.74409252     0.16100
O780        O  0.52376951  0.07020045  0.79076107    -0.60800
H781        H  0.67341948  0.09523412  0.83479016     0.16100
O782        O  0.71808877  0.04135029  0.78817727    -0.60900
H783        H  0.72440033  0.01233002  0.80278655     0.43100
H784        H  0.51066610  0.04640498  0.80797182     0.43100
C785        C  0.69333051  0.45537341  0.85842088    -0.06000
C786        C  0.64591536  0.45637074  0.84699935    -0.33400
C787        C  0.61808366  0.41566151  0.84797232     0.35900
C788        C  0.63757824  0.37227003  0.86021175    -0.06300
C789        C  0.68412104  0.37217539  0.87415721    -0.33300
C790        C  0.71192864  0.41318957  0.87325493     0.35800
H791        H  0.63069799  0.48864971  0.83589712     0.16100
O792        O  0.57288734  0.41826858  0.83446598    -0.60800
H793        H  0.70010097  0.33957435  0.88388806     0.16100
O794        O  0.75810654  0.41073680  0.88464768    -0.60900
H795        H  0.77616714  0.39943403  0.86278399     0.43100
H796        H  0.55363545  0.43122535  0.85511494     0.43100
C797        C  0.12856405  0.16366479  0.36971131    -0.06000
C798        C  0.08603409  0.14187110  0.35935623    -0.33400
C799        C  0.04361876  0.16763942  0.35739324     0.35900
C800        C  0.04273539  0.21644619  0.36570894    -0.06300
C801        C  0.08389424  0.23714381  0.37994927    -0.33300
C802        C  0.12659708  0.21128945  0.38188062     0.35800
H803        H  0.08594078  0.10517856  0.35065697     0.16100
O804        O  0.00358561  0.14505242  0.34564203    -0.60800
H805        H  0.08382791  0.27428962  0.38737830     0.16100
O806        O  0.16643916  0.23358653  0.39433726    -0.60900
H807        H  0.17861579  0.25146761  0.37280962     0.43100
H808        H  0.98685181  0.13564901  0.36856471     0.43100
C809        C  0.99586580  0.33437008  0.24266010    -0.06000
C810        C  0.99221640  0.38154679  0.23071103    -0.33400
C811        C  0.02251697  0.39917111  0.20302913     0.35900
C812        C  0.05856413  0.37003362  0.18800718    -0.06300
C813        C  0.05994235  0.32200889  0.19875412    -0.33300
C814        C  0.02906922  0.30427267  0.22562833     0.35800
H815        H  0.96676264  0.40518176  0.24368333     0.16100
O816        O  0.01841565  0.44560410  0.19265000    -0.60800
H817        H  0.08696673  0.29842061  0.18787502     0.16100
O818        O  0.03460038  0.25849047  0.23746099    -0.60900
H819        H  0.01068573  0.24012628  0.22363515     0.43100
H820        H  0.99195003  0.44645129  0.17475859     0.43100
C821        C  0.90364951  0.32882110  0.46581475    -0.06000
C822        C  0.86341715  0.31332698  0.48502772    -0.33400
C823        C  0.86173711  0.31361652  0.52336858     0.35900
C824        C  0.90059191  0.33040740  0.54371486    -0.06300
C825        C  0.94069478  0.34679738  0.52464627    -0.33300
C826        C  0.94245527  0.34605714  0.48594521     0.35800
H827        H  0.83275318  0.30041425  0.47032543     0.16100
O828        O  0.82147460  0.29785728  0.54050405    -0.60800
H829        H  0.97117858  0.35938104  0.53973085     0.16100
O830        O  0.98284529  0.36042318  0.46832025    -0.60900
H831        H  0.97920613  0.39514991  0.46547370     0.43100
H832        H  0.82495827  0.26292717  0.54146512     0.43100
C833        C  0.85638564  0.44150690  0.32205331    -0.06000
C834        C  0.88520425  0.47119666  0.30068422    -0.33400
C835        C  0.86563177  0.50144638  0.27403457     0.35900
C836        C  0.81636049  0.50208450  0.26773436    -0.06300
C837        C  0.78723922  0.47555396  0.29123004    -0.33300
C838        C  0.80670559  0.44564409  0.31821163     0.35800
H839        H  0.92334247  0.46938299  0.30333646     0.16100
O840        O  0.89531845  0.52897016  0.25338240    -0.60800
H841        H  0.74926541  0.47576468  0.28728053     0.16100
O842        O  0.77677601  0.41759271  0.33825516    -0.60900
H843        H  0.76872919  0.43637406  0.36061127     0.43100
H844        H  0.89716239  0.55937583  0.26698035     0.43100
C845        C  0.77138942  0.07490167  0.36105264    -0.06000
C846        C  0.75038592  0.11629668  0.37526390    -0.33400
C847        C  0.77643651  0.15826659  0.37845426     0.35900
C848        C  0.82457392  0.15928753  0.36747246    -0.06300
C849        C  0.84648539  0.11654109  0.35704961    -0.33300
C850        C  0.82039139  0.07488155  0.35350097     0.35800
H851        H  0.71296052  0.11698322  0.38178611     0.16100
O852        O  0.75345826  0.19862580  0.38990268    -0.60800
H853        H  0.88353326  0.11579510  0.34934084     0.16100
O854        O  0.84311419  0.03439233  0.34195903    -0.60900
H855        H  0.84690522  0.03791475  0.31486016     0.43100
H856        H  0.75809062  0.19974014  0.41702370     0.43100
C857        C  0.41140827  0.12942109  0.31680464    -0.06000
C858        C  0.43723007  0.10019566  0.29246296    -0.33400
C859        C  0.46685704  0.11939058  0.26537901     0.35900
C860        C  0.47114707  0.16890076  0.26169544    -0.06300
C861        C  0.44860213  0.19801021  0.28803852    -0.33300
C862        C  0.41917116  0.17876552  0.31543878     0.35800
H863        H  0.43277832  0.06216017  0.29313661     0.16100
O864        O  0.49036468  0.08918921  0.24196752    -0.60800
H865        H  0.45178708  0.23610765  0.28629774     0.16100
O866        O  0.39549602  0.20901596  0.33879568    -0.60900
H867        H  0.41455357  0.20946638  0.36174955     0.43100
H868        H  0.52084433  0.08248720  0.25446935     0.43100
C869        C  0.42158417  0.30232374  0.14390067    -0.06000
C870        C  0.37844245  0.27974649  0.13664501    -0.33400
C871        C  0.33653789  0.30621723  0.13238776     0.35900
C872        C  0.33740523  0.35599049  0.13532348    -0.06300
C873        C  0.38089747  0.37859480  0.13953926    -0.33300
C874        C  0.42277906  0.35234305  0.14302860     0.35800
H875        H  0.37654143  0.24147966  0.13660016     0.16100
O876        O  0.29441889  0.28293578  0.12853453    -0.60800
H877        H  0.38210647  0.41679288  0.14192701     0.16100
O878        O  0.46443600  0.37618958  0.14724933    -0.60900
H879        H  0.47876132  0.37683535  0.12221955     0.43100
H880        H  0.28459023  0.27454936  0.15402967     0.43100
C881        C  0.56111527  0.19625623  0.04013658    -0.06000
C882        C  0.60436265  0.19967271  0.02099501    -0.33400
C883        C  0.60588492  0.20158075  0.98249000     0.35900
C884        C  0.56370844  0.19956491  0.96199138    -0.06300
C885        C  0.52054847  0.19417047  0.98079220    -0.33300
C886        C  0.51893288  0.19294947  0.01954210     0.35800
H887        H  0.63749730  0.20156023  0.03587791     0.16100
O888        O  0.64902514  0.20403747  0.96515290    -0.60800
H889        H  0.48776261  0.19229648  0.96544266     0.16100
O890        O  0.47595198  0.18879917  0.03681605    -0.60900
H891        H  0.46389268  0.22166296  0.03951098     0.43100
H892        H  0.65774652  0.23795941  0.96591995     0.43100
C893        C  0.77175083  0.27411914  0.27508174    -0.06000
C894        C  0.73011018  0.29718442  0.28745284    -0.33400
C895        C  0.68603678  0.28642850  0.27210310     0.35900
C896        C  0.68339502  0.25271765  0.24371603    -0.06300
C897        C  0.72446913  0.22818910  0.23278698    -0.33300
C898        C  0.76825213  0.23868919  0.24793665     0.35800
H899        H  0.73160569  0.32362399  0.30911925     0.16100
O900        O  0.64665545  0.31131703  0.28318510    -0.60800
H901        H  0.72299353  0.20227598  0.21079130     0.16100
O902        O  0.80735656  0.21432890  0.23556944    -0.60900
H903        H  0.81919815  0.23275927  0.21423840     0.43100
H904        H  0.63007584  0.29015583  0.30073058     0.43100
C905        C  0.65581765  0.02255937  0.23566511    -0.06000
C906        C  0.68801546  0.04778705  0.21409680    -0.33400
C907        C  0.67187184  0.07919981  0.18683510     0.35900
C908        C  0.62279161  0.08487159  0.18046357    -0.06300
C909        C  0.59133275  0.05458517  0.19875999    -0.33300
C910        C  0.60748640  0.02416905  0.22662603     0.35800
H911        H  0.72547610  0.04593448  0.22026179     0.16100
O912        O  0.70412869  0.10548207  0.16745896    -0.60800
H913        H  0.55370680  0.05729270  0.19367454     0.16100
O914        O  0.57544834  0.99814935  0.24628527    -0.60900
H915        H  0.57779566  0.96572446  0.23588505     0.43100
H916        H  0.71959358  0.12614016  0.18598868     0.43100
C917        C  0.68530756  0.45228211  0.14963283    -0.06000
C918        C  0.63564863  0.45328600  0.15307057    -0.33400
C919        C  0.60897895  0.41215926  0.14848536     0.35900
C920        C  0.63151036  0.36912174  0.13956953    -0.06300
C921        C  0.68041278  0.36882822  0.13276877    -0.33300
C922        C  0.70733808  0.40986476  0.13778375     0.35800
H923        H  0.61740013  0.48556789  0.16107708     0.16100
O924        O  0.56096312  0.41402373  0.15384828    -0.60800
H925        H  0.69846791  0.33580407  0.12653265     0.16100
O926        O  0.75549911  0.40697059  0.13374396    -0.60900
H927        H  0.76144258  0.41272406  0.10716725     0.43100
H928        H  0.55636063  0.41300239  0.18098596     0.43100
loop_ 
_geom_bond_atom_site_label_1 
_geom_bond_atom_site_label_2 
_geom_bond_distance 
_geom_bond_site_symmetry_2 
_ccdc_geom_bond_type 
O1           C16   1.261       .  A
O1           Al9   1.884       .  S
C2           O12   1.257       .  A
C2            O3   1.270       .  A
C2          C908   1.487       .  S
O3           Al5   1.939       .  S
O4            C6   1.255       .  A
O4           Al5   1.895       .  S
Al5          O13   1.907       .  S
Al5          O15   1.934       .  S
Al5          O14   1.794       .  S
C6           O19   1.260       .  A
C6          C860   1.494       .  S
O7           C17   1.264       .  A
O7           Al9   1.920       .  S
O8           C21   1.265       .  A
O8          Al18   1.908       .  S
Al9          O22   1.911       .  S
Al9          O19   1.921       .  S
Al9          O14   1.792       .  S
O10          C17   1.253       .  A
O10         Al18   1.861       .  S
O11          C20   1.253       .  A
O11         Al18   1.879       .  S
O12         Al18   1.870       .  S
O13          C20   1.256       .  A
O14         Al18   1.793       .  S
O15          C16   1.269       .  A
C16         C869   1.490       .  S
C17         C896   1.466       .  S
C20         C881   1.486       .  S
C21          O22   1.264       .  A
C21         C920   1.477       .  S
O23          C38   1.264       .  A
O23         Al31   1.908       .  S
C24          O34   1.261       .  A
C24          O25   1.262       .  A
C24         C833   1.492       .  S
O25         Al27   1.921       .  S
O26          C28   1.255       .  A
O26         Al27   1.869       .  S
Al27         O35   1.852       .  S
Al27         O37   1.924       .  S
Al27         O36   1.784       .  S
C28          O41   1.267       .  A
C28         C893   1.476       .  S
O29          C39   1.264       .  A
O29         Al31   1.919       .  S
O30          C43   1.267   1_655  A
O30         Al40   1.919       .  S
Al31         O44   1.918       .  S
Al31         O41   1.926       .  S
Al31         O36   1.773       .  S
O32          C39   1.262       .  A
O32         Al40   1.916       .  S
O33          C42   1.267       .  A
O33         Al40   1.940       .  S
O34         Al40   1.904       .  S
O35          C42   1.255       .  A
O36         Al40   1.787       .  S
O37          C38   1.262       .  A
C38         C848   1.493       .  S
C39         C809   1.481       .  S
C42         C821   1.476       .  S
C43          O44   1.267   1_455  A
C43         C800   1.491       .  S
O45          C60   1.265       .  A
O45         Al53   1.902       .  S
C46          O56   1.259       .  A
C46          O47   1.268       .  A
C46         C776   1.490       .  S
O47         Al49   1.931       .  S
O48          C50   1.253       .  A
O48         Al49   1.871       .  S
Al49         O57   1.880       .  S
Al49         O59   1.934       .  S
Al49         O58   1.777       .  S
C50          O63   1.262       .  A
C50         C761   1.473       .  S
O51          C61   1.268       .  A
O51         Al53   1.944       .  S
O52          C65   1.266       .  A
O52         Al62   1.902       .  S
Al53         O66   1.916       .  S
Al53         O63   1.918       .  S
Al53         O58   1.780       .  S
O54          C61   1.263       .  A
O54         Al62   1.898       .  S
O55          C64   1.262       .  A
O55         Al62   1.922       .  S
O56         Al62   1.885       .  S
O57          C64   1.257       .  A
O58         Al62   1.779       .  S
O59          C60   1.269       .  A
C60         C788   1.494       .  S
C61         C737   1.496       .  S
C64         C884   1.478       .  S
C65          O66   1.267       .  A
C65         C749   1.474       .  S
O67          C82   1.269   1_655  A
O67         Al75   1.927       .  S
C68          O78   1.265       .  A
C68          O69   1.261       .  A
C68         C713   1.489       .  S
O69         Al71   1.894       .  S
O70          C72   1.262       .  A
O70         Al71   1.893       .  S
Al71         O79   1.919       .  S
Al71         O81   1.905       .  S
Al71         O80   1.781       .  S
C72          O85   1.264       .  A
C72         C701   1.488   1_655  S
O73          C83   1.264       .  A
O73         Al75   1.920       .  S
O74          C87   1.266       .  A
O74         Al84   1.927       .  S
Al75         O88   1.913       .  S
Al75         O85   1.926       .  S
Al75         O80   1.777       .  S
O76          C83   1.255       .  A
O76         Al84   1.875       .  S
O77          C86   1.257       .  A
O77         Al84   1.869       .  S
O78         Al84   1.932       .  S
O79          C86   1.263       .  A
O80         Al84   1.775       .  S
O81          C82   1.265   1_655  A
C82         C692   1.482       .  S
C83         C764   1.473       .  S
C86         C824   1.476       .  S
C87          O88   1.266       .  A
C87         C728   1.493       .  S
O89         C104   1.262       .  A
O89         Al97   1.899       .  S
C90         O100   1.263       .  A
C90          O91   1.264       .  A
C90         C665   1.495       .  S
O91         Al93   1.923       .  S
O92          C94   1.255       .  A
O92         Al93   1.876       .  S
Al93        O101   1.878       .  S
Al93        O103   1.912       .  S
Al93        O102   1.784       .  S
C94         O107   1.263       .  A
C94         C653   1.477       .  S
O95         C105   1.262       .  A
O95         Al97   1.918       .  S
O96         C109   1.268       .  A
O96        Al106   1.915       .  S
Al97        O110   1.913       .  S
Al97        O107   1.911       .  S
Al97        O102   1.777       .  S
O98         C105   1.261       .  A
O98        Al106   1.908       .  S
O99         C108   1.264       .  A
O99        Al106   1.935       .  S
O100       Al106   1.899       .  S
O101        C108   1.257       .  A
O102       Al106   1.785       .  S
O103        C104   1.263       .  A
C104        C677   1.487       .  S
C105        C716   1.484       .  S
C108        C641   1.488       .  S
C109        O110   1.267       .  A
C109        C785   1.483       .  S
O111        C126   1.261       .  A
O111       Al119   1.889   1_545  S
C112        O122   1.256       .  A
C112        O113   1.271       .  A
C112        C617   1.482       .  S
O113       Al115   1.946       .  S
O114        C116   1.255   1_565  A
O114       Al115   1.885       .  S
Al115       O123   1.917       .  S
Al115       O125   1.936   1_565  S
Al115       O124   1.795       .  S
C116        O129   1.261   1_545  A
C116        C773   1.489       .  S
O117        C127   1.262       .  A
O117       Al119   1.917       .  S
O118        C131   1.267       .  A
O118       Al128   1.907       .  S
Al119       O132   1.909       .  S
Al119       O129   1.919       .  S
Al119       O124   1.789       .  S
O120        C127   1.250       .  A
O120       Al128   1.857       .  S
O121        C130   1.250       .  A
O121       Al128   1.870       .  S
O122       Al128   1.862       .  S
O123        C130   1.258       .  A
O124       Al128   1.793       .  S
O125        C126   1.268       .  A
C126        C725   1.493       .  S
C127        C656   1.465       .  S
C130        C605   1.486       .  S
C131        O132   1.266       .  A
C131        C629   1.478       .  S
O133        C148   1.261       .  A
O133       Al141   1.881       .  S
C134        O144   1.256       .  A
C134        O135   1.272       .  A
C134        C581   1.489       .  S
O135       Al137   1.948       .  S
O136        C138   1.256       .  A
O136       Al137   1.894       .  S
Al137       O145   1.916       .  S
Al137       O147   1.935       .  S
Al137       O146   1.788       .  S
C138        O151   1.261       .  A
C138        C836   1.490       .  S
O139        C149   1.260       .  A
O139       Al141   1.907       .  S
O140        C153   1.264       .  A
O140       Al150   1.898       .  S
Al141       O154   1.915       .  S
Al141       O151   1.924       .  S
Al141       O146   1.788       .  S
O142        C149   1.252       .  A
O142       Al150   1.866       .  S
O143        C152   1.253       .  A
O143       Al150   1.882       .  S
O144       Al150   1.860       .  S
O145        C152   1.258       .  A
O146       Al150   1.790       .  S
O147        C148   1.269       .  A
C148        C917   1.491       .  S
C149        C569   1.444       .  S
C152        C644   1.485       .  S
C153        O154   1.265       .  A
C153        C596   1.472       .  S
O155        C170   1.263       .  A
O155       Al163   1.899       .  S
C156        O166   1.260       .  A
C156        O157   1.261       .  A
C156        C545   1.493       .  S
O157       Al159   1.923       .  S
O158        C160   1.254       .  A
O158       Al159   1.869       .  S
Al159       O167   1.866       .  S
Al159       O169   1.938       .  S
Al159       O168   1.781       .  S
C160        O173   1.265       .  A
C160        C572   1.454       .  S
O161        C171   1.260       .  A
O161       Al163   1.901       .  S
O162        C175   1.265       .  A
O162       Al172   1.914   1_545  S
Al163       O176   1.911   1_565  S
Al163       O173   1.922       .  S
Al163       O168   1.779       .  S
O164        C171   1.264   1_545  A
O164       Al172   1.915   1_545  S
O165        C174   1.268       .  A
O165       Al172   1.937       .  S
O166       Al172   1.902       .  S
O167        C174   1.260       .  A
O168       Al172   1.781       .  S
O169        C170   1.265       .  A
C170        C557   1.494       .  S
C171        C905   1.473   1_565  S
C174        C608   1.474       .  S
C175        O176   1.264       .  A
C175        C845   1.488       .  S
O177        C192   1.262       .  A
O177       Al185   1.894       .  S
C178        O188   1.260       .  A
C178        O179   1.261       .  A
C178        C704   1.477       .  S
O179       Al181   1.925       .  S
O180        C182   1.256       .  A
O180       Al181   1.874       .  S
Al181       O189   1.869       .  S
Al181       O191   1.917       .  S
Al181       O190   1.784       .  S
C182        O195   1.266       .  A
C182        C533   1.474       .  S
O183        C193   1.264       .  A
O183       Al185   1.913       .  S
O184        C197   1.266       .  A
O184       Al194   1.903       .  S
Al185       O198   1.907       .  S
Al185       O195   1.925       .  S
Al185       O190   1.777       .  S
O186        C193   1.265       .  A
O186       Al194   1.922       .  S
O187        C196   1.268       .  A
O187       Al194   1.948       .  S
O188       Al194   1.891       .  S
O189        C196   1.257       .  A
O190       Al194   1.783       .  S
O191        C192   1.263       .  A
C192        C752   1.485       .  S
C193        C500   1.483       .  S
C196        C521   1.489       .  S
C197        O198   1.265       .  A
C197        C509   1.476       .  S
O199        C214   1.260   1_545  A
O199       Al207   1.886       .  S
C200        O210   1.257       .  A
C200        O201   1.270       .  A
C200        C740   1.478       .  S
O201       Al203   1.951       .  S
O202        C204   1.252       .  A
O202       Al203   1.878       .  S
Al203       O211   1.896       .  S
Al203       O213   1.941   1_545  S
Al203       O212   1.796       .  S
C204        O217   1.262       .  A
C204        C473   1.488       .  S
O205        C215   1.263       .  A
O205       Al207   1.913       .  S
O206        C219   1.268       .  A
O206       Al216   1.915       .  S
Al207       O220   1.907       .  S
Al207       O217   1.930       .  S
Al207       O212   1.789       .  S
O208        C215   1.252       .  A
O208       Al216   1.869       .  S
O209        C218   1.255       .  A
O209       Al216   1.881       .  S
O210       Al216   1.873       .  S
O211        C218   1.254       .  A
O212       Al216   1.796       .  S
O213        C214   1.269       .  A
C214        C464   1.496       .  S
C215        C536   1.458       .  S
C218        C485   1.481       .  S
C219        O220   1.265       .  A
C219        C689   1.479       .  S
O221        C236   1.262       .  A
O221       Al229   1.886       .  S
C222        O232   1.256       .  A
C222        O223   1.273       .  A
C222        C812   1.499       .  S
O223       Al225   1.958       .  S
O224        C226   1.254       .  A
O224       Al225   1.888       .  S
Al225       O233   1.912       .  S
Al225       O235   1.943       .  S
Al225       O234   1.791       .  S
C226        O239   1.262       .  A
C226        C425   1.495       .  S
O227        C237   1.263       .  A
O227       Al229   1.914       .  S
O228        C241   1.264       .  A
O228       Al238   1.903       .  S
Al229       O242   1.921       .  S
Al229       O239   1.933       .  S
Al229       O234   1.789       .  S
O230        C237   1.253       .  A
O230       Al238   1.862       .  S
O231        C240   1.254       .  A
O231       Al238   1.886       .  S
O232       Al238   1.865       .  S
O233        C240   1.257       .  A
O234       Al238   1.792       .  S
O235        C236   1.271       .  A
C236        C437   1.497       .  S
C237        C449   1.460       .  S
C240        C524   1.488       .  S
C241        O242   1.266       .  A
C241        C872   1.475       .  S
O243        C258   1.263       .  A
O243       Al251   1.903       .  S
C244        O254   1.259       .  A
C244        O245   1.265       .  A
C244        C857   1.493       .  S
O245       Al247   1.930       .  S
O246        C248   1.254       .  A
O246       Al247   1.864       .  S
Al247       O255   1.854       .  S
Al247       O257   1.939       .  S
Al247       O256   1.780       .  S
C248        O261   1.266       .  A
C248        C452   1.472       .  S
O249        C259   1.262       .  A
O249       Al251   1.908       .  S
O250        C263   1.265       .  A
O250       Al260   1.910   1_565  S
Al251       O264   1.914       .  S
Al251       O261   1.923       .  S
Al251       O256   1.773       .  S
O252        C259   1.264       .  A
O252       Al260   1.922       .  S
O253        C262   1.267       .  A
O253       Al260   1.942       .  S
O254       Al260   1.891       .  S
O255        C262   1.255       .  A
O256       Al260   1.785       .  S
O257        C258   1.266       .  A
C258        C797   1.496       .  S
C259        C413   1.478       .  S
C262        C488   1.471       .  S
C263        O264   1.266   1_565  A
C263        C401   1.485       .  S
O265        C280   1.263       .  A
O265       Al273   1.900       .  S
C266        O276   1.262       .  A
C266        O267   1.261       .  A
C266        C476   1.492       .  S
O267       Al269   1.916       .  S
O268        C270   1.257       .  A
O268       Al269   1.877       .  S
Al269       O277   1.867       .  S
Al269       O279   1.909       .  S
Al269       O278   1.781       .  S
C270        O283   1.262       .  A
C270        C389   1.476       .  S
O271        C281   1.263       .  A
O271       Al273   1.909       .  S
O272        C285   1.266       .  A
O272       Al282   1.916       .  S
Al273       O286   1.900       .  S
Al273       O283   1.913       .  S
Al273       O278   1.783       .  S
O274        C281   1.263       .  A
O274       Al282   1.910       .  S
O275        C284   1.265       .  A
O275       Al282   1.938       .  S
O276       Al282   1.906       .  S
O277        C284   1.256       .  A
O278       Al282   1.784       .  S
O279        C280   1.261       .  A
C280        C512   1.484       .  S
C281        C620   1.476       .  S
C284        C377   1.480       .  S
C285        O286   1.262       .  A
C285        C680   1.484       .  S
O287        C302   1.264       .  A
O287       Al295   1.906   1_655  S
C288        O298   1.259       .  A
C288        O289   1.263       .  A
C288        C497   1.496       .  S
O289       Al291   1.909       .  S
O290        C292   1.263       .  A
O290       Al291   1.917   1_655  S
Al291       O299   1.939       .  S
Al291       O301   1.917   1_455  S
Al291       O300   1.786       .  S
C292        O305   1.262   1_655  A
C292        C668   1.487       .  S
O293        C303   1.266       .  A
O293       Al295   1.921       .  S
O294        C307   1.261       .  A
O294       Al304   1.915       .  S
Al295       O308   1.914       .  S
Al295       O305   1.919       .  S
Al295       O300   1.785       .  S
O296        C303   1.258       .  A
O296       Al304   1.873       .  S
O297        C306   1.260       .  A
O297       Al304   1.871       .  S
O298       Al304   1.921       .  S
O299        C306   1.267       .  A
O300       Al304   1.786       .  S
O301        C302   1.266       .  A
C302        C632   1.487       .  S
C303        C392   1.477       .  S
C306        C365   1.481       .  S
C307        O308   1.263       .  A
C307        C461   1.494       .  S
O309        C324   1.261       .  A
O309       Al317   1.873       .  S
C310        O320   1.258       .  A
C310        O311   1.269       .  A
C310        C416   1.494       .  S
O311       Al313   1.937       .  S
O312        C314   1.254       .  A
O312       Al313   1.895       .  S
Al313       O321   1.910       .  S
Al313       O323   1.938       .  S
Al313       O322   1.798       .  S
C314        O327   1.258       .  A
C314        C548   1.492       .  S
O315        C325   1.261       .  A
O315       Al317   1.900       .  S
O316        C329   1.265       .  A
O316       Al326   1.917       .  S
Al317       O330   1.907       .  S
Al317       O327   1.917       .  S
Al317       O322   1.793       .  S
O318        C325   1.254       .  A
O318       Al326   1.865       .  S
O319        C328   1.254       .  A
O319       Al326   1.878       .  S
O320       Al326   1.876       .  S
O321        C328   1.256       .  A
O322       Al326   1.796       .  S
O323        C324   1.270       .  A
C324        C593   1.489       .  S
C325        C353   1.453       .  S
C328        C380   1.488       .  S
C329        O330   1.262       .  A
C329        C440   1.482       .  S
O331        C346   1.264       .  A
O331       Al339   1.904       .  S
C332        O342   1.260       .  A
C332        O333   1.262       .  A
C332        C428   1.495       .  S
O333       Al335   1.924       .  S
O334        C336   1.253       .  A
O334       Al335   1.868       .  S
Al335       O343   1.859       .  S
Al335       O345   1.927       .  S
Al335       O344   1.781       .  S
C336        O349   1.264       .  A
C336        C356   1.473       .  S
O337        C347   1.263   1_455  A
O337       Al339   1.907       .  S
O338        C351   1.267       .  A
O338       Al348   1.919   1_655  S
Al339       O352   1.909   1_455  S
Al339       O349   1.919       .  S
Al339       O344   1.780       .  S
O340        C347   1.263       .  A
O340       Al348   1.914   1_655  S
O341        C350   1.268       .  A
O341       Al348   1.947       .  S
O342       Al348   1.901       .  S
O343        C350   1.255       .  A
O344       Al348   1.785       .  S
O345        C346   1.265       .  A
C346        C404   1.492       .  S
C347        C584   1.473       .  S
C350        C368   1.483       .  S
C351        O352   1.264       .  A
C351        C560   1.486       .  S
C353        C354   1.395       .  A
C353        C358   1.405       .  A
C354        C355   1.395       .  A
C354        H359   1.084       .  S
C355        C356   1.416       .  A
C355        O360   1.371       .  S
C356        C357   1.403       .  A
C357        C358   1.391       .  A
C357        H361   1.083       .  S
C358        O362   1.372       .  S
O360        H364   0.992       .  S
O362        H363   0.991       .  S
C365        C366   1.401       .  A
C365        C370   1.412       .  A
C366        C367   1.392       .  A
C366        H371   1.084       .  S
C367        C368   1.413       .  A
C367        O372   1.373       .  S
C368        C369   1.407       .  A
C369        C370   1.407       .  A
C369        H373   1.083   1_455  S
C370        O374   1.371   1_455  S
O372        H376   0.992       .  S
O374        H375   0.992       .  S
C377        C378   1.406       .  A
C377        C382   1.409       .  A
C378        C379   1.408   1_556  A
C378        H383   1.084       .  S
C379        C380   1.414       .  A
C379        O384   1.371       .  S
C380        C381   1.405       .  A
C381        C382   1.392   1_554  A
C381        H385   1.083       .  S
C382        O386   1.373       .  S
O384        H388   0.992       .  S
O386        H387   0.992       .  S
C389        C390   1.405       .  A
C389        C394   1.411       .  A
C390        C391   1.396       .  A
C390        H395   1.084       .  S
C391        C392   1.411       .  A
C391        O396   1.372       .  S
C392        C393   1.406       .  A
C393        C394   1.395       .  A
C393        H397   1.083       .  S
C394        O398   1.372       .  S
O396        H400   0.993       .  S
O398        H399   0.991       .  S
C401        C402   1.405       .  A
C401        C406   1.409       .  A
C402        C403   1.399       .  A
C402        H407   1.084       .  S
C403        C404   1.411       .  A
C403        O408   1.371       .  S
C404        C405   1.410       .  A
C405        C406   1.406       .  A
C405        H409   1.083       .  S
C406        O410   1.372       .  S
O408        H412   0.992       .  S
O410        H411   0.992       .  S
C413        C414   1.404       .  A
C413        C418   1.404   1_545  A
C414        C415   1.406   1_545  A
C414        H419   1.084       .  S
C415        C416   1.412       .  A
C415        O420   1.370       .  S
C416        C417   1.410       .  A
C417        C418   1.402       .  A
C417        H421   1.083       .  S
C418        O422   1.372       .  S
O420        H424   0.991       .  S
O422        H423   0.992       .  S
C425        C426   1.406       .  A
C425        C430   1.413       .  A
C426        C427   1.407       .  A
C426        H431   1.083       .  S
C427        C428   1.415       .  A
C427        O432   1.370       .  S
C428        C429   1.404       .  A
C429        C430   1.402       .  A
C429        H433   1.083       .  S
C430        O434   1.370       .  S
O432        H436   0.992       .  S
O434        H435   0.990       .  S
C437        C438   1.410       .  A
C437        C442   1.414       .  A
C438        C439   1.401       .  A
C438        H443   1.083       .  S
C439        C440   1.407       .  A
C439        O444   1.373       .  S
C440        C441   1.405       .  A
C441        C442   1.408       .  A
C441        H445   1.084       .  S
C442        O446   1.371       .  S
O444        H448   0.991       .  S
O446        H447   0.992       .  S
C449        C450   1.403       .  A
C449        C454   1.401       .  A
C450        C451   1.389       .  A
C450        H455   1.084       .  S
C451        C452   1.407       .  A
C451        O456   1.372       .  S
C452        C453   1.412       .  A
C453        C454   1.398       .  A
C453        H457   1.084       .  S
C454        O458   1.371       .  S
O456        H460   0.992       .  S
O458        H459   0.992       .  S
C461        C462   1.410       .  A
C461        C466   1.409       .  A
C462        C463   1.405       .  A
C462        H467   1.083       .  S
C463        C464   1.411       .  A
C463        O468   1.371       .  S
C464        C465   1.410       .  A
C465        C466   1.403       .  A
C465        H469   1.083       .  S
C466        O470   1.370       .  S
O468        H472   0.992       .  S
O470        H471   0.992       .  S
C473        C474   1.403   1_545  A
C473        C478   1.414       .  A
C474        C475   1.405       .  A
C474        H479   1.084       .  S
C475        C476   1.416       .  A
C475        O480   1.371       .  S
C476        C477   1.403       .  A
C477        C478   1.401   1_565  A
C477        H481   1.083       .  S
C478        O482   1.372       .  S
O480        H484   0.991       .  S
O482        H483   0.992       .  S
C485        C486   1.403       .  A
C485        C490   1.414       .  A
C486        C487   1.386       .  A
C486        H491   1.084       .  S
C487        C488   1.409       .  A
C487        O492   1.373       .  S
C488        C489   1.403       .  A
C489        C490   1.406       .  A
C489        H493   1.084       .  S
C490        O494   1.371   1_545  S
O492        H496   0.991       .  S
O494        H495   0.992       .  S
C497        C498   1.400       .  A
C497        C502   1.417       .  A
C498        C499   1.400       .  A
C498        H503   1.078       .  S
C499        C500   1.408       .  A
C499        O504   1.374       .  S
C500        C501   1.405       .  A
C501        C502   1.411       .  A
C501        H505   1.084       .  S
C502        O506   1.372       .  S
O504        H508   0.992       .  S
O506        H507   0.991       .  S
C509        C510   1.401       .  A
C509        C514   1.410       .  A
C510        C511   1.401       .  A
C510        H515   1.084       .  S
C511        C512   1.416       .  A
C511        O516   1.372       .  S
C512        C513   1.404       .  A
C513        C514   1.396       .  A
C513        H517   1.083       .  S
C514        O518   1.372       .  S
O516        H520   0.992       .  S
O518        H519   0.992       .  S
C521        C522   1.405       .  A
C521        C526   1.412       .  A
C522        C523   1.393   1_556  A
C522        H527   1.084       .  S
C523        C524   1.413       .  A
C523        O528   1.372       .  S
C524        C525   1.408       .  A
C525        C526   1.409   1_554  A
C525        H529   1.083       .  S
C526        O530   1.371       .  S
O528        H532   0.992       .  S
O530        H531   0.992       .  S
C533        C534   1.404       .  A
C533        C538   1.414       .  A
C534        C535   1.394       .  A
C534        H539   1.084       .  S
C535        C536   1.405       .  A
C535        O540   1.372       .  S
C536        C537   1.399       .  A
C537        C538   1.399       .  A
C537        H541   1.084       .  S
C538        O542   1.372       .  S
O540        H544   0.992       .  S
O542        H543   0.992       .  S
C545        C546   1.404       .  A
C545        C550   1.415       .  A
C546        C547   1.402       .  A
C546        H551   1.083       .  S
C547        C548   1.411       .  A
C547        O552   1.369       .  S
C548        C549   1.406       .  A
C549        C550   1.407       .  A
C549        H553   1.083       .  S
C550        O554   1.372       .  S
O552        H556   0.991       .  S
O554        H555   0.991       .  S
C557        C558   1.406       .  A
C557        C562   1.417       .  A
C558        C559   1.399       .  A
C558        H563   1.083       .  S
C559        C560   1.411       .  A
C559        O564   1.371       .  S
C560        C561   1.404       .  A
C561        C562   1.408       .  A
C561        H565   1.083       .  S
C562        O566   1.372       .  S
O564        H568   0.991       .  S
O566        H567   0.992       .  S
C569        C570   1.402       .  A
C569        C574   1.401       .  A
C570        C571   1.392       .  A
C570        H575   1.085       .  S
C571        C572   1.405       .  A
C571        O576   1.372       .  S
C572        C573   1.403       .  A
C573        C574   1.393       .  A
C573        H577   1.084       .  S
C574        O578   1.372       .  S
O576        H580   0.991       .  S
O578        H579   0.991       .  S
C581        C582   1.406       .  A
C581        C586   1.418       .  A
C582        C583   1.404       .  A
C582        H587   1.083       .  S
C583        C584   1.408       .  A
C583        O588   1.370       .  S
C584        C585   1.397       .  A
C585        C586   1.399       .  A
C585        H589   1.084       .  S
C586        O590   1.372       .  S
O588        H592   0.989   1_655  S
O590        H591   0.992       .  S
C593        C594   1.410       .  A
C593        C598   1.413       .  A
C594        C595   1.396       .  A
C594        H599   1.083       .  S
C595        C596   1.404       .  A
C595        O600   1.373       .  S
C596        C597   1.405       .  A
C597        C598   1.405       .  A
C597        H601   1.084       .  S
C598        O602   1.372       .  S
O600        H604   0.992       .  S
O602        H603   0.992       .  S
C605        C606   1.408       .  A
C605        C610   1.417       .  A
C606        C607   1.406       .  A
C606        H611   1.083   1_565  S
C607        C608   1.409       .  A
C607        O612   1.371   1_565  S
C608        C609   1.399       .  A
C609        C610   1.390       .  A
C609        H613   1.084       .  S
C610        O614   1.372       .  S
O612        H616   0.992       .  S
O614        H615   0.991       .  S
C617        C618   1.403       .  A
C617        C622   1.415       .  A
C618        C619   1.401       .  A
C618        H623   1.083       .  S
C619        C620   1.408       .  A
C619        O624   1.368       .  S
C620        C621   1.399       .  A
C621        C622   1.402       .  A
C621        H625   1.084       .  S
C622        O626   1.371       .  S
O624        H628   0.992       .  S
O626        H627   0.993       .  S
C629        C630   1.400       .  A
C629        C634   1.413       .  A
C630        C631   1.397       .  A
C630        H635   1.084       .  S
C631        C632   1.412       .  A
C631        O636   1.371       .  S
C632        C633   1.406       .  A
C633        C634   1.408       .  A
C633        H637   1.083       .  S
C634        O638   1.372       .  S
O636        H640   0.991       .  S
O638        H639   0.992       .  S
C641        C642   1.404       .  A
C641        C646   1.414       .  A
C642        C643   1.394   1_556  A
C642        H647   1.084       .  S
C643        C644   1.412       .  A
C643        O648   1.373       .  S
C644        C645   1.406       .  A
C645        C646   1.408   1_554  A
C645        H649   1.083       .  S
C646        O650   1.371       .  S
O648        H652   0.992       .  S
O650        H651   0.991       .  S
C653        C654   1.411       .  A
C653        C658   1.409       .  A
C654        C655   1.400       .  A
C654        H659   1.083       .  S
C655        C656   1.403       .  A
C655        O660   1.372       .  S
C656        C657   1.404       .  A
C657        C658   1.390       .  A
C657        H661   1.085       .  S
C658        O662   1.372       .  S
O660        H664   0.992       .  S
O662        H663   0.992       .  S
C665        C666   1.403       .  A
C665        C670   1.419       .  A
C666        C667   1.397       .  A
C666        H671   1.083       .  S
C667        C668   1.404       .  A
C667        O672   1.364       .  S
C668        C669   1.403       .  A
C669        C670   1.412       .  A
C669        H673   1.083       .  S
C670        O674   1.371       .  S
O672        H676   0.993   1_655  S
O674        H675   0.993       .  S
C677        C678   1.409       .  A
C677        C682   1.412       .  A
C678        C679   1.401       .  A
C678        H683   1.083       .  S
C679        C680   1.407       .  A
C679        O684   1.371       .  S
C680        C681   1.407       .  A
C681        C682   1.399       .  A
C681        H685   1.084       .  S
C682        O686   1.372       .  S
O684        H688   0.991       .  S
O686        H687   0.992       .  S
C689        C690   1.403       .  A
C689        C694   1.411       .  A
C690        C691   1.400       .  A
C690        H695   1.084       .  S
C691        C692   1.408       .  A
C691        O696   1.371       .  S
C692        C693   1.405       .  A
C693        C694   1.406       .  A
C693        H697   1.084       .  S
C694        O698   1.371       .  S
O696        H700   0.992   1_455  S
O698        H699   0.990       .  S
C701        C702   1.403       .  A
C701        C706   1.415   1_455  A
C702        C703   1.386       .  A
C702        H707   1.083       .  S
C703        C704   1.405       .  A
C703        O708   1.370       .  S
C704        C705   1.405       .  A
C705        C706   1.413   1_455  A
C705        H709   1.083       .  S
C706        O710   1.370       .  S
O708        H712   0.991       .  S
O710        H711   0.991       .  S
C713        C714   1.405       .  A
C713        C718   1.414       .  A
C714        C715   1.398       .  A
C714        H719   1.084       .  S
C715        C716   1.410       .  A
C715        O720   1.372       .  S
C716        C717   1.405       .  A
C717        C718   1.408       .  A
C717        H721   1.083       .  S
C718        O722   1.371       .  S
O720        H724   0.992       .  S
O722        H723   0.992       .  S
C725        C726   1.409       .  A
C725        C730   1.411       .  A
C726        C727   1.403       .  A
C726        H731   1.084       .  S
C727        C728   1.410       .  A
C727        O732   1.370       .  S
C728        C729   1.409       .  A
C729        C730   1.404       .  A
C729        H733   1.083       .  S
C730        O734   1.372       .  S
O732        H736   0.991       .  S
O734        H735   0.992       .  S
C737        C738   1.406       .  A
C737        C742   1.416       .  A
C738        C739   1.393       .  A
C738        H743   1.083       .  S
C739        C740   1.403       .  A
C739        O744   1.376       .  S
C740        C741   1.408       .  A
C741        C742   1.418       .  A
C741        H745   1.083       .  S
C742        O746   1.371       .  S
O744        H748   0.991       .  S
O746        H747   0.991       .  S
C749        C750   1.401       .  A
C749        C754   1.407       .  A
C750        C751   1.402       .  A
C750        H755   1.084       .  S
C751        C752   1.416       .  A
C751        O756   1.372       .  S
C752        C753   1.405       .  A
C753        C754   1.396       .  A
C753        H757   1.083       .  S
C754        O758   1.371       .  S
O756        H760   0.992       .  S
O758        H759   0.991       .  S
C761        C762   1.405       .  A
C761        C766   1.409       .  A
C762        C763   1.397       .  A
C762        H767   1.084       .  S
C763        C764   1.410       .  A
C763        O768   1.373       .  S
C764        C765   1.404       .  A
C765        C766   1.395       .  A
C765        H769   1.084       .  S
C766        O770   1.372       .  S
O768        H772   0.992       .  S
O770        H771   0.992       .  S
C773        C774   1.406       .  A
C773        C778   1.411       .  A
C774        C775   1.400       .  A
C774        H779   1.083       .  S
C775        C776   1.415       .  A
C775        O780   1.372       .  S
C776        C777   1.407       .  A
C777        C778   1.403       .  A
C777        H781   1.083       .  S
C778        O782   1.371       .  S
O780        H784   0.991       .  S
O782        H783   0.992       .  S
C785        C786   1.404       .  A
C785        C790   1.407       .  A
C786        C787   1.399       .  A
C786        H791   1.084       .  S
C787        C788   1.413       .  A
C787        O792   1.371       .  S
C788        C789   1.411       .  A
C789        C790   1.406       .  A
C789        H793   1.083       .  S
C790        O794   1.371       .  S
O792        H796   0.991       .  S
O794        H795   0.992       .  S
C797        C798   1.407       .  A
C797        C802   1.416       .  A
C798        C799   1.400       .  A
C798        H803   1.083       .  S
C799        C800   1.412       .  A
C799        O804   1.372       .  S
C800        C801   1.405       .  A
C801        C802   1.409       .  A
C801        H805   1.083       .  S
C802        O806   1.372       .  S
O804        H808   0.992   1_455  S
O806        H807   0.992       .  S
C809        C810   1.406       .  A
C809        C814   1.403   1_655  A
C810        C811   1.411   1_655  A
C810        H815   1.084       .  S
C811        C812   1.413       .  A
C811        O816   1.370       .  S
C812        C813   1.413       .  A
C813        C814   1.401       .  A
C813        H817   1.083       .  S
C814        O818   1.372       .  S
O816        H820   0.991   1_455  S
O818        H819   0.991       .  S
C821        C822   1.405       .  A
C821        C826   1.408       .  A
C822        C823   1.388       .  A
C822        H827   1.084       .  S
C823        C824   1.409       .  A
C823        O828   1.373       .  S
C824        C825   1.408       .  A
C825        C826   1.402       .  A
C825        H829   1.083       .  S
C826        O830   1.371       .  S
O828        H832   0.992       .  S
O830        H831   0.992       .  S
C833        C834   1.406       .  A
C833        C838   1.416       .  A
C834        C835   1.402       .  A
C834        H839   1.084       .  S
C835        C836   1.412       .  A
C835        O840   1.370       .  S
C836        C837   1.404       .  A
C837        C838   1.404       .  A
C837        H841   1.083       .  S
C838        O842   1.371       .  S
O840        H844   0.991       .  S
O842        H843   0.992       .  S
C845        C846   1.404       .  A
C845        C850   1.411       .  A
C846        C847   1.406       .  A
C846        H851   1.084       .  S
C847        C848   1.417       .  A
C847        O852   1.372       .  S
C848        C849   1.404       .  A
C849        C850   1.400       .  A
C849        H853   1.083       .  S
C850        O854   1.372       .  S
O852        H856   0.991       .  S
O854        H855   0.992       .  S
C857        C858   1.406       .  A
C857        C862   1.415       .  A
C858        C859   1.401       .  A
C858        H863   1.084       .  S
C859        C860   1.412       .  A
C859        O864   1.369       .  S
C860        C861   1.407       .  A
C861        C862   1.406       .  A
C861        H865   1.083       .  S
C862        O866   1.371       .  S
O864        H868   0.992       .  S
O866        H867   0.991       .  S
C869        C870   1.406       .  A
C869        C874   1.415       .  A
C870        C871   1.406       .  A
C870        H875   1.083       .  S
C871        C872   1.411       .  A
C871        O876   1.372       .  S
C872        C873   1.399       .  A
C873        C874   1.399       .  A
C873        H877   1.084       .  S
C874        O878   1.370       .  S
O876        H880   0.993       .  S
O878        H879   0.992       .  S
C881        C882   1.408       .  A
C881        C886   1.412       .  A
C882        C883   1.395   1_554  A
C882        H887   1.083       .  S
C883        C884   1.408       .  A
C883        O888   1.373       .  S
C884        C885   1.405       .  A
C885        C886   1.404   1_556  A
C885        H889   1.084       .  S
C886        O890   1.371       .  S
O888        H892   0.992       .  S
O890        H891   0.992       .  S
C893        C894   1.413       .  A
C893        C898   1.406       .  A
C894        C895   1.401       .  A
C894        H899   1.083       .  S
C895        C896   1.403       .  A
C895        O900   1.371       .  S
C896        C897   1.404       .  A
C897        C898   1.389       .  A
C897        H901   1.082       .  S
C898        O902   1.372       .  S
O900        H904   0.992       .  S
O902        H903   0.991       .  S
C905        C906   1.398       .  A
C905        C910   1.406       .  A
C906        C907   1.403       .  A
C906        H911   1.084       .  S
C907        C908   1.415       .  A
C907        O912   1.373       .  S
C908        C909   1.405       .  A
C909        C910   1.402       .  A
C909        H913   1.082       .  S
C910        O914   1.370   1_545  S
O912        H916   0.993       .  S
O914        H915   0.992       .  S
C917        C918   1.409       .  A
C917        C922   1.412       .  A
C918        C919   1.400       .  A
C918        H923   1.084       .  S
C919        C920   1.406       .  A
C919        O924   1.372       .  S
C920        C921   1.404       .  A
C921        C922   1.404       .  A
C921        H925   1.084       .  S
C922        O926   1.371       .  S
O924        H928   0.991       .  S
O926        H927   0.990       .  S
