geometry optimzed in LAMMPS
_audit_creation_date              2020-11-30 
_audit_creation_method            'lammps2cif' 
_symmetry_space_group_name_H-M    'P1' 
_symmetry_Int_Tables_number       1 
_symmetry_cell_setting            triclinic 
loop_ 
_symmetry_equiv_pos_as_xyz 
  x,y,z 
_cell_length_a                    32.61403702 
_cell_length_b                    32.57181331930048 
_cell_length_c                    34.65558636915242 
_cell_angle_alpha                 89.83303858382307 
_cell_angle_beta                  90.6255505177803 
_cell_angle_gamma                 120.41792617806702 
loop_ 
_atom_site_label 
_atom_site_type_symbol 
_atom_site_fract_x 
_atom_site_fract_y 
_atom_site_fract_z 
_atom_site_charge 
O1          O  0.37694762  0.56901963  0.55415360    -0.84100
O2          O  0.28023414  0.52550849  0.56603338    -0.81100
C3          C  0.27260282  0.48720917  0.55075748     0.99400
O4          O  0.28173104  0.45967839  0.56973987    -0.81200
O5          O  0.32515344  0.42936654  0.62375058    -0.83800
C6          C  0.36693578  0.44222568  0.61281046     1.03900
O7          O  0.39839588  0.48557095  0.61177913    -0.76600
O8          O  0.43602185  0.57958773  0.59262738    -0.76800
C9          C  0.42052896  0.58333636  0.55960429     1.03900
O10         O  0.39504617  0.62637740  0.61932257    -0.84100
O11         O  0.30122657  0.57238713  0.63961878    -0.81100
C12         C  0.25995447  0.53787394  0.64457517     0.99400
O13         O  0.24873351  0.49602772  0.63351559    -0.81200
O14         O  0.29761977  0.47172491  0.68321501    -0.83800
C15         C  0.33380321  0.48338345  0.70388714     1.03900
O16         O  0.37523844  0.50261125  0.68945531    -0.76600
O17         O  0.41183223  0.59646914  0.66906639    -0.76700
C18         C  0.41732319  0.63204093  0.65048755     1.03800
Cr19       Cr  0.33843979  0.56976227  0.59685237     1.93700
Cr20       Cr  0.29224339  0.46833922  0.62694277     1.93200
Cr21       Cr  0.40076835  0.53936741  0.63949246     1.39100
O22         O  0.34416078  0.52548160  0.62144596    -1.21800
O23         O  0.14704861  0.62541856  0.53239166    -0.84100
O24         O  0.21968650  0.71908163  0.54139215    -0.81100
C25         C  0.19567100  0.73835709  0.53293550     0.99400
O26         O  0.16300494  0.73292856  0.55514503    -0.81200
O27         O  0.09604891  0.69697632  0.61347827    -0.83800
C28         C  0.06077189  0.65727147  0.60303118     1.03900
O29         O  0.06404767  0.62065697  0.60039928    -0.76600
O30         O  0.10272165  0.56976844  0.57414441    -0.76800
C31         C  0.11517055  0.58317615  0.53958781     1.03900
O32         O  0.18957891  0.59641016  0.58973869    -0.84100
O33         O  0.25124820  0.69146254  0.60722761    -0.81100
C34         C  0.26674103  0.73485589  0.61453300     0.99400
O35         O  0.23935555  0.75222274  0.61176676    -0.81200
O36         O  0.17162042  0.71299874  0.66730781    -0.83800
C37         C  0.14419192  0.67865211  0.68838613     1.03900
O38         O  0.11394006  0.63867229  0.67391653    -0.76600
O39         O  0.15722329  0.59099746  0.64561206    -0.76700
C40         C  0.17846028  0.57824324  0.62284096     1.03800
Cr41       Cr  0.19880343  0.65840296  0.57017274     1.93700
Cr42       Cr  0.16671915  0.71946311  0.61126423     1.93200
Cr43       Cr  0.11292279  0.60943173  0.62226298     1.39100
O44         O  0.15933501  0.66257346  0.60191535    -1.21800
O45         O  0.45420569  0.83258085  0.53775742    -0.84100
O46         O  0.53520569  0.82772071  0.53037449    -0.81100
C47         C  0.57133427  0.82446737  0.53762729     0.99400
O48         O  0.58400186  0.82515393  0.57226877    -0.81200
O49         O  0.60142423  0.91496529  0.59693421    -0.83800
C50         C  0.59123013  0.94610252  0.60686667     1.03900
O51         O  0.55367567  0.93493234  0.62542764    -0.76600
O52         O  0.48431838  0.90128161  0.56804817    -0.76800
C53         C  0.46255155  0.87488751  0.53938459     1.03900
O54         O  0.42327803  0.76331586  0.59813554    -0.84100
O55         O  0.49998869  0.75246215  0.58782155    -0.81100
C56         C  0.51013861  0.74898370  0.62262047     0.99400
O57         O  0.53412717  0.78565825  0.64310889    -0.81200
O58         O  0.56480372  0.87513378  0.67094133    -0.83800
C59         C  0.52797075  0.86213862  0.69050373     1.03900
O60         O  0.49014116  0.85494216  0.67400192    -0.76600
O61         O  0.42008911  0.82592741  0.61706239    -0.76700
C62         C  0.40026689  0.78153293  0.61141155     1.03800
Cr63       Cr  0.48075179  0.79755820  0.56610714     1.93700
Cr64       Cr  0.56718083  0.84990973  0.61929624     1.93200
Cr65       Cr  0.48906730  0.87667810  0.62001738     1.39100
O66         O  0.51198599  0.84159730  0.60154296    -1.21800
O67         O  0.15738909  0.53700139  0.45257438    -0.84100
O68         O  0.22747112  0.51228460  0.44810123    -0.81100
C69         C  0.20253809  0.46954340  0.45835202     0.99400
O70         O  0.16943264  0.44046076  0.43636923    -0.81200
O71         O  0.10296737  0.40596883  0.37528984    -0.83800
C72         C  0.06828752  0.41161475  0.38309183     1.03900
O73         O  0.07334928  0.45237852  0.38505986    -0.76600
O74         O  0.11281582  0.54367685  0.40759868    -0.76800
C75         C  0.12429424  0.54455636  0.44277579     1.03900
O76         O  0.20201081  0.60323842  0.39233291    -0.84100
O77         O  0.26053055  0.56562271  0.37966982    -0.81100
C78         C  0.27396705  0.53586401  0.37414796     0.99400
O79         O  0.24590939  0.49164144  0.38024124    -0.81200
O80         O  0.17905232  0.46112610  0.32264892    -0.83800
C81         C  0.15317427  0.46909817  0.30030252     1.03900
O82         O  0.12373901  0.48007692  0.31303406    -0.76600
O83         O  0.16702617  0.57235413  0.33736150    -0.76700
C84         C  0.19016677  0.60805109  0.35869363     1.03800
Cr85       Cr  0.20873236  0.55094153  0.41578519     1.93700
Cr86       Cr  0.17363077  0.45354401  0.37924503     1.93200
Cr87       Cr  0.12272214  0.51111032  0.36235860     1.39100
O88         O  0.16819198  0.50490423  0.38520579    -1.21800
O89         O  0.37790957  0.84754448  0.44584531    -0.84100
O90         O  0.28595062  0.77539238  0.43358793    -0.81100
C91         C  0.26817211  0.79943405  0.44539405     0.99400
O92         O  0.26737005  0.83013761  0.42346612    -0.81200
O93         O  0.29983302  0.90013229  0.36461627    -0.83800
C94         C  0.33755676  0.93706859  0.37637454     1.03900
O95         O  0.37424725  0.93512832  0.38455294    -0.76600
O96         O  0.43141747  0.89856651  0.40584995    -0.76800
C97         C  0.41920514  0.88190137  0.43996720     1.03900
O98         O  0.40798340  0.81453747  0.38216955    -0.84100
O99         O  0.31587563  0.75282404  0.36374545    -0.81100
C100        C  0.27263430  0.73545308  0.35562185     0.99400
O101        O  0.25112261  0.75779045  0.36417953    -0.81200
O102        O  0.28803237  0.82754262  0.31067998    -0.83800
C103        C  0.32132345  0.85903001  0.29099687     1.03900
O104        O  0.35820985  0.89260660  0.30752752    -0.76600
O105        O  0.40892689  0.85122530  0.32938797    -0.76700
C106        C  0.41944285  0.82433930  0.34738278     1.03800
Cr107      Cr  0.34619370  0.80037920  0.40446334     1.93700
Cr108      Cr  0.28044234  0.82998034  0.36682702     1.93200
Cr109      Cr  0.38973246  0.89127679  0.35821241     1.39100
O110        O  0.33870882  0.84113014  0.37650167    -1.21800
O111        O  0.47953212  0.67464540  0.45969503    -0.84100
O112        O  0.52357172  0.76889756  0.43534966    -0.81100
C113        C  0.56740485  0.78532296  0.44065982     0.99400
O114        O  0.58983702  0.77094025  0.42051548    -0.81200
O115        O  0.60231482  0.70976440  0.37047154    -0.83800
C116        C  0.59400054  0.67303410  0.38927552     1.03900
O117        O  0.55339373  0.64617332  0.40329820    -0.76600
O118        O  0.46062093  0.61012035  0.42649790    -0.76800
C119        C  0.46285048  0.63018567  0.45818413     1.03900
O120        O  0.41287095  0.64979577  0.39725167    -0.84100
O121        O  0.46369286  0.74014853  0.36898978    -0.81100
C122        C  0.49742004  0.77862126  0.35608799     0.99400
O123        O  0.54004641  0.78841847  0.35990172    -0.81200
O124        O  0.54585690  0.72255421  0.31336631    -0.83800
C125        C  0.53482804  0.68145326  0.30169046     1.03900
O126        O  0.52506302  0.64824444  0.32526741    -0.76600
O127        O  0.43490398  0.62111316  0.34987466    -0.76700
C128        C  0.40304776  0.62458086  0.36730359     1.03800
Cr129      Cr  0.47312081  0.70758378  0.41330929     1.93700
Cr130      Cr  0.56545485  0.74410179  0.36764104     1.93200
Cr131      Cr  0.49514527  0.63619738  0.37698594     1.39100
O132        O  0.51140533  0.69601639  0.38593631    -1.21800
O133        O  0.56166204  0.45036964  0.42585310    -0.84100
O134        O  0.60295290  0.54259417  0.40788034    -0.81100
C135        C  0.63402481  0.58491856  0.40135341     0.99400
O136        O  0.67222971  0.59488619  0.38420182    -0.81200
O137        O  0.72056220  0.57399042  0.43978890    -0.83800
C138        C  0.72792551  0.54859126  0.46315545     1.03900
O139        O  0.71721189  0.50698858  0.45355468    -0.76600
O140        O  0.62130371  0.46791686  0.46537358    -0.76800
C141        C  0.57810660  0.45474825  0.45955691     1.03900
O142        O  0.58359072  0.42950076  0.35150422    -0.84100
O143        O  0.61805127  0.52308080  0.33037362    -0.81100
C144        C  0.65454643  0.53277297  0.31134482     0.99400
O145        O  0.69291339  0.54183965  0.32807765    -0.81200
O146        O  0.74829773  0.52703192  0.38192573    -0.83800
C147        C  0.73775228  0.48368675  0.37894390     1.03900
O148        O  0.69592805  0.45056650  0.38546407    -0.76600
O149        O  0.60041008  0.40220146  0.40337640    -0.76700
C150        C  0.57726712  0.39494373  0.37213454     1.03800
Cr151      Cr  0.59623871  0.48779503  0.37971658     1.93700
Cr152      Cr  0.70512139  0.55578999  0.38405066     1.93200
Cr153      Cr  0.65844761  0.45970471  0.42473591     1.39100
O154        O  0.65344594  0.50102249  0.39552948    -1.21800
O155        O  0.54339291  0.43004835  0.59259686    -0.84100
O156        O  0.45053167  0.38471338  0.61222041    -0.81100
C157        C  0.40850720  0.35240800  0.61858799     0.99400
O158        O  0.39953968  0.31075149  0.62820883    -0.81200
O159        O  0.42421114  0.26500716  0.56867558    -0.83800
C160        C  0.45141920  0.25793617  0.54721612     1.03900
O161        O  0.49528558  0.27871878  0.55479956    -0.76600
O162        O  0.52758705  0.37456320  0.54940891    -0.76800
C163        C  0.54112002  0.41717658  0.55787635     1.03900
O164        O  0.56484404  0.39971524  0.66479833    -0.84100
O165        O  0.47211530  0.36119475  0.68666602    -0.81100
C166        C  0.46384201  0.32260580  0.70207502     0.99400
O167        O  0.45438076  0.28692878  0.68161552    -0.81200
O168        O  0.47426301  0.24075489  0.62536072    -0.83800
C169        C  0.51836227  0.25479909  0.62919291     1.03900
O170        O  0.54924722  0.29776220  0.62376660    -0.76600
O171        O  0.59414916  0.39307557  0.61048625    -0.76700
C172        C  0.60004788  0.40745383  0.64493928     1.03800
Cr173      Cr  0.50645757  0.38948486  0.63755915     1.93700
Cr174      Cr  0.44150597  0.28017789  0.62528902     1.93200
Cr175      Cr  0.53817393  0.33597632  0.58667566     1.39100
O176        O  0.49472111  0.33494338  0.61648465    -1.21800
O177        O  0.50763769  0.10318863  0.43353167    -0.84100
O178        O  0.44399524  0.07039909  0.37235880    -0.81100
C179        C  0.40719465  0.06653755  0.38769686     0.99400
O180        O  0.40343223  0.10291936  0.39342659    -0.81200
O181        O  0.43606465  0.19880456  0.41504112    -0.83800
C182        C  0.45066617  0.20430909  0.45005832     1.03900
O183        O  0.48350321  0.19613756  0.45894021    -0.76600
O184        O  0.55654354  0.17678141  0.45145397    -0.76800
C185        C  0.53654197  0.13264573  0.45773175     1.03900
O186        O  0.58335821  0.16582498  0.38118650    -0.84100
O187        O  0.51723422  0.13723794  0.32274928    -0.81100
C188        C  0.48424703  0.13560635  0.30239451     0.99400
O189        O  0.44912675  0.13547897  0.31825560    -0.81200
O190        O  0.48844673  0.22823210  0.34225828    -0.83800
C191        C  0.51443870  0.26536268  0.36170250     1.03900
O192        O  0.52247910  0.26211474  0.39688958    -0.76600
O193        O  0.58758698  0.23509474  0.38442143    -0.76700
C194        C  0.60626753  0.21057625  0.37642116     1.03800
Cr195      Cr  0.51174317  0.12236285  0.37837580     1.93700
Cr196      Cr  0.44722909  0.16596465  0.36881490     1.93200
Cr197      Cr  0.53478711  0.21382357  0.42076529     1.39100
O198        O  0.49749442  0.16687988  0.38949052    -1.21800
O199        O  0.87723282  0.47910314  0.58385874    -0.84100
O200        O  0.92582983  0.57046768  0.61006004    -0.81100
C201        C  0.93443678  0.61106103  0.62055301     0.99400
O202        O  0.90178100  0.61659943  0.63445882    -0.81200
O203        O  0.83156359  0.59136474  0.57606047    -0.83800
C204        C  0.79643983  0.56525165  0.55433926     1.03900
O205        O  0.76764361  0.52319587  0.56454594    -0.76600
O206        O  0.82919953  0.49221608  0.54761273    -0.76800
C207        C  0.86215959  0.48305164  0.55093136     1.03900
O208        O  0.83258347  0.44899596  0.65901904    -0.84100
O209        O  0.88523581  0.54023213  0.68576694    -0.81100
C210        C  0.85786659  0.54976731  0.70443563     0.99400
O211        O  0.82884086  0.55875150  0.68749025    -0.81200
O212        O  0.75767926  0.53941887  0.63457109    -0.83800
C213        C  0.72791423  0.49530589  0.63960832     1.03900
O214        O  0.73880761  0.46443734  0.63114982    -0.76600
O215        O  0.78868386  0.42211254  0.60697963    -0.76700
C216        C  0.80122849  0.41473615  0.63953904     1.03800
Cr217      Cr  0.87695208  0.51063831  0.63367806     1.93700
Cr218      Cr  0.83013678  0.57311109  0.63197220     1.93200
Cr219      Cr  0.78451214  0.47849044  0.58974656     1.39100
O220        O  0.83077754  0.52085399  0.61907311    -1.21800
O221        O  0.87475371  0.42614173  0.44481743    -0.84100
O222        O  0.93045374  0.39392775  0.41646163    -0.81100
C223        C  0.94288958  0.36544405  0.40456904     0.99400
O224        O  0.91492307  0.32960986  0.38418500    -0.81200
O225        O  0.84786731  0.27335852  0.43776456    -0.83800
C226        C  0.81455835  0.26076779  0.46149395     1.03900
O227        O  0.78049418  0.26691935  0.45285714    -0.76600
O228        O  0.83344313  0.35951032  0.47681157    -0.76800
C229        C  0.86198884  0.40359423  0.47644893     1.03900
O230        O  0.83105425  0.41420617  0.36892445    -0.84100
O231        O  0.89431025  0.38958936  0.33947551    -0.81100
C232        C  0.87040488  0.35492335  0.31678466     0.99400
O233        O  0.84109443  0.31389969  0.32978657    -0.81200
O234        O  0.77088845  0.24809754  0.37973920    -0.83800
C235        C  0.73767833  0.25795231  0.37865569     1.03900
O236        O  0.74554493  0.29783282  0.39031158    -0.76600
O237        O  0.78669384  0.38705385  0.42015287    -0.76700
C238        C  0.79630712  0.40901795  0.38843589     1.03800
Cr239      Cr  0.87977030  0.40173607  0.39289877     1.93700
Cr240      Cr  0.84302045  0.29408564  0.38397983     1.93200
Cr241      Cr  0.78989119  0.32881195  0.43295207     1.39100
O242        O  0.83755605  0.34167273  0.40252431    -1.21800
O243        O  0.59702107  0.13565283  0.56851345    -0.84100
O244        O  0.63726515  0.08801804  0.60125867    -0.81100
C245        C  0.66564691  0.07852353  0.61831915     0.99400
O246        O  0.70042227  0.11047282  0.63748809    -0.81200
O247        O  0.75317287  0.17734436  0.58082925    -0.83800
C248        C  0.76343711  0.20971776  0.55618413     1.03900
O249        O  0.75414878  0.24207142  0.56335726    -0.76600
O250        O  0.66298002  0.18491212  0.53860994    -0.76800
C251        C  0.62020910  0.15220575  0.53760579     1.03900
O252        O  0.60259706  0.17822916  0.64346080    -0.84100
O253        O  0.63657662  0.12616647  0.67692689    -0.81100
C254        C  0.66977289  0.15449141  0.69954744     0.99400
O255        O  0.71022076  0.18506072  0.68671547    -0.81200
O256        O  0.77295646  0.25477808  0.63580144    -0.83800
C257        C  0.75983089  0.28554084  0.63692179     1.03900
O258        O  0.71913139  0.27475589  0.62470352    -0.76600
O259        O  0.62966803  0.22628448  0.59396324    -0.76700
C260        C  0.60527827  0.21219213  0.62428021     1.03800
Cr261      Cr  0.62264033  0.13520581  0.62189822     1.93700
Cr262      Cr  0.73120790  0.18209459  0.63372684     1.93200
Cr263      Cr  0.69068939  0.22877143  0.58233994     1.39100
O264        O  0.68120180  0.18206501  0.61326284    -1.21800
O265        O  0.62471313  0.46100713  0.06000371    -0.84100
O266        O  0.71819787  0.53037616  0.04584305    -0.81100
C267        C  0.76114257  0.56190832  0.05158849     0.99400
O268        O  0.77575120  0.57894870  0.08487582    -0.81200
O269        O  0.72054351  0.61800371  0.11021618    -0.83800
C270        C  0.68202771  0.61641557  0.11896968     1.03900
O271        O  0.64984175  0.58118260  0.13682869    -0.76600
O272        O  0.60733987  0.51394304  0.07974762    -0.76800
C273        C  0.60324506  0.48371449  0.05504964     1.03900
O274        O  0.65708786  0.43043803  0.12473614    -0.84100
O275        O  0.74864845  0.49048884  0.10407948    -0.81100
C276        C  0.76824231  0.50202961  0.13688604     0.99400
O277        O  0.76407689  0.53218795  0.15708436    -0.81200
O278        O  0.71735690  0.57801828  0.18478266    -0.83800
C279        C  0.68397451  0.54633726  0.20440370     1.03900
O280        O  0.64780975  0.51205725  0.18838838    -0.76600
O281        O  0.59659739  0.44078452  0.13421433    -0.76700
C282        C  0.61513757  0.41476562  0.13579229     1.03800
Cr283      Cr  0.68686003  0.48131447  0.08603075     1.93700
Cr284      Cr  0.74010940  0.57325855  0.13302914     1.93200
Cr285      Cr  0.62973236  0.51276590  0.13366615     1.39100
O286        O  0.68560903  0.52266531  0.11773306    -1.21800
O287        O  0.52230389  0.36180607  0.97276183    -0.84100
O288        O  0.49949296  0.27294278  0.94834106    -0.81100
C289        C  0.45478869  0.25247074  0.94984929     0.99400
O290        O  0.43221782  0.26357632  0.92639612    -0.81200
O291        O  0.41532734  0.31685138  0.87121831    -0.83800
C292        C  0.41558954  0.35128041  0.88857932     1.03900
O293        O  0.45274287  0.38244122  0.90561868    -0.76600
O294        O  0.54008175  0.42792716  0.94249712    -0.76800
C295        C  0.53288705  0.40462844  0.97377785     1.03900
O296        O  0.60215024  0.40409693  0.92235682    -0.84100
O297        O  0.57066608  0.31577252  0.89083409    -0.81100
C298        C  0.54422752  0.27445627  0.87760626     0.99400
O299        O  0.49943999  0.25764082  0.87463509    -0.81200
O300        O  0.48534966  0.31537132  0.82357825    -0.83800
C301        C  0.48871101  0.35293035  0.81006262     1.03900
O302        O  0.49501327  0.38672066  0.83217774    -0.76600
O303        O  0.58319295  0.42614803  0.86877771    -0.76700
C304        C  0.61433486  0.42998780  0.89263380     1.03800
Cr305      Cr  0.54593857  0.33911303  0.93106804     1.93700
Cr306      Cr  0.46144155  0.29215887  0.87567758     1.93200
Cr307      Cr  0.51705408  0.40157738  0.88782392     1.39100
O308        O  0.50806540  0.34432317  0.89769526    -1.21800
O309        O  0.63853504  0.18466217  0.95904580    -0.84100
O310        O  0.72706341  0.19450793  0.97093887    -0.81100
C311        C  0.76759019  0.19993927  0.96472313     0.99400
O312        O  0.78024947  0.19937475  0.93057649    -0.81200
O313        O  0.71167120  0.10886863  0.90417741    -0.83800
C314        C  0.67116574  0.07593760  0.89305188     1.03900
O315        O  0.64378294  0.08506100  0.87342668    -0.76600
O316        O  0.60626139  0.11415825  0.93181698    -0.76800
C317        C  0.60845955  0.14077234  0.95926746     1.03900
O318        O  0.67593917  0.25270737  0.89884637    -0.84100
O319        O  0.76523239  0.26903954  0.91506213    -0.81100
C320        C  0.78084035  0.27501843  0.88114191     0.99400
O321        O  0.77116371  0.23972599  0.85984263    -0.81200
O322        O  0.71420311  0.14954297  0.82980963    -0.83800
C323        C  0.68704026  0.15822736  0.80971033     1.03900
O324        O  0.65450849  0.16229478  0.82556083    -0.76600
O325        O  0.61053692  0.18726383  0.88176232    -0.76700
C326        C  0.63406247  0.23211922  0.88550466     1.03800
Cr327      Cr  0.70086054  0.22175080  0.93336831     1.93700
Cr328      Cr  0.74052651  0.17427925  0.88230452     1.93200
Cr329      Cr  0.63320941  0.14005172  0.87943603     1.39100
O330        O  0.69122295  0.17866685  0.89833629    -1.21800
O331        O  0.84452933  0.45167671  0.95875881    -0.84100
O332        O  0.81933605  0.52063587  0.96591815    -0.81100
C333        C  0.80866620  0.55172430  0.95703964     0.99400
O334        O  0.81141248  0.56532258  0.92264338    -0.81200
O335        O  0.90632980  0.60121717  0.90301477    -0.83800
C336        C  0.94345609  0.59966202  0.89574357     1.03900
O337        O  0.94091861  0.56531068  0.87701582    -0.76600
O338        O  0.91558035  0.50250842  0.93775994    -0.76800
C339        C  0.88890336  0.47587697  0.96414783     1.03900
O340        O  0.78234126  0.41464518  0.89267371    -0.84100
O341        O  0.75070136  0.47580319  0.90599129    -0.81100
C342        C  0.74449953  0.48830715  0.87294201     0.99400
O343        O  0.77991635  0.51468150  0.85197377    -0.81200
O344        O  0.87420228  0.55856929  0.82739308    -0.83800
C345        C  0.87407400  0.52474700  0.80948227     1.03900
O346        O  0.87430410  0.49121428  0.82762586    -0.76600
O347        O  0.85375346  0.42532247  0.88516267    -0.76700
C348        C  0.80902737  0.39941549  0.88213252     1.03800
Cr349      Cr  0.80270327  0.46848159  0.92849690     1.93700
Cr350      Cr  0.84376475  0.55666563  0.87748486     1.93200
Cr351      Cr  0.89274512  0.49680886  0.88291880     1.39100
O352        O  0.84626819  0.50715866  0.89608868    -1.21800
O353        O  0.52079035  0.18411573  0.03235266    -0.84100
O354        O  0.48806048  0.24389164  0.05300908    -0.81100
C355        C  0.44461567  0.21520336  0.04681196     0.99400
O356        O  0.42201290  0.18001533  0.06877613    -0.81200
O357        O  0.40590064  0.10996278  0.12401875    -0.83800
C358        C  0.41341496  0.07868836  0.10927395     1.03900
O359        O  0.45418498  0.08953391  0.09811835    -0.76600
O360        O  0.54168372  0.14037645  0.06640406    -0.76800
C361        C  0.53445005  0.15424154  0.03378752     1.03900
O362        O  0.59550705  0.22903266  0.08803871    -0.84100
O363        O  0.55299767  0.27600067  0.11597805    -0.81100
C364        C  0.52286814  0.28604027  0.12809934     0.99400
O365        O  0.47849459  0.25531318  0.12593866    -0.81200
O366        O  0.46474080  0.18494128  0.17691556    -0.83800
C367        C  0.47446936  0.15641839  0.19339210     1.03900
O368        O  0.48785171  0.13212864  0.17400763    -0.76600
O369        O  0.57614829  0.18897794  0.14174652    -0.76700
C370        C  0.60708913  0.22050504  0.12051766     1.03800
Cr371      Cr  0.53642558  0.22975224  0.07462694     1.93700
Cr372      Cr  0.44646660  0.18246863  0.12245607     1.93200
Cr373      Cr  0.51378027  0.14084728  0.11928264     1.39100
O374        O  0.49855334  0.18395886  0.10589357    -1.21800
O375        O  0.85392892  0.36185874  0.04383156    -0.84100
O376        O  0.78548352  0.26990120  0.06075206    -0.81100
C377        C  0.80850835  0.24857200  0.05939423     0.99400
O378        O  0.84276178  0.25980296  0.08239987    -0.81200
O379        O  0.90936239  0.30941166  0.14174862    -0.83800
C380        C  0.94472874  0.34795904  0.12980610     1.03900
O381        O  0.93973728  0.38216342  0.11902491    -0.76600
O382        O  0.89772839  0.42500665  0.08017808    -0.76800
C383        C  0.88630594  0.40473927  0.04700780     1.03900
O384        O  0.80871064  0.39599529  0.09343736    -0.84100
O385        O  0.75191516  0.30460707  0.11925970    -0.81100
C386        C  0.73729264  0.26271463  0.13080245     0.99400
O387        O  0.76548523  0.24636869  0.13246456    -0.81200
O388        O  0.83076854  0.29725534  0.18758477    -0.83800
C389        C  0.85771005  0.33414980  0.20645548     1.03900
O390        O  0.88726159  0.37265828  0.18958698    -0.76600
O391        O  0.84090178  0.41256402  0.15062934    -0.76700
C392        C  0.81351732  0.41499529  0.12601186     1.03800
Cr393      Cr  0.80323414  0.33347979  0.08190792     1.93700
Cr394      Cr  0.83813737  0.28269365  0.13461744     1.93200
Cr395      Cr  0.88819492  0.39383331  0.13379281     1.39100
O396        O  0.84373530  0.33666892  0.11710921    -1.21800
O397        O  0.39802221  0.54219739  0.95045176    -0.84100
O398        O  0.38097646  0.46377182  0.91278940    -0.81100
C399        C  0.35455848  0.42172597  0.90136332     0.99400
O400        O  0.31656277  0.40958148  0.88224485    -0.81200
O401        O  0.24778788  0.41211805  0.92804085    -0.83800
C402        C  0.22796660  0.42929414  0.94811348     1.03900
O403        O  0.23761319  0.47111278  0.94224516    -0.76600
O404        O  0.32674302  0.50895503  0.97611147    -0.76800
C405        C  0.37093207  0.52545562  0.97947682     1.03900
O406        O  0.39161883  0.58403596  0.87652158    -0.84100
O407        O  0.38033197  0.50397487  0.83934441    -0.81100
C408        C  0.34682219  0.48717485  0.81477981     0.99400
O409        O  0.30381838  0.46722894  0.82512694    -0.81200
O410        O  0.23186834  0.46786960  0.86774533    -0.83800
C411        C  0.23946561  0.51049886  0.86924077     1.03900
O412        O  0.27575754  0.54269982  0.88651998    -0.76600
O413        O  0.35856532  0.58997375  0.92853400    -0.76700
C414        C  0.38283136  0.60885891  0.89903906     1.03800
Cr415      Cr  0.38304233  0.52171053  0.89488947     1.93700
Cr416      Cr  0.27808313  0.44297644  0.87738307     1.93200
Cr417      Cr  0.30127515  0.52586117  0.93104411     1.39100
O418        O  0.32098135  0.49646366  0.90045044    -1.21800
O419        O  0.11780414  0.51319389  0.06410951    -0.84100
O420        O  0.08808954  0.45604716  0.12830239    -0.81100
C421        C  0.07705796  0.41594617  0.11408522     0.99400
O422        O  0.10908604  0.40621741  0.10583934    -0.81200
O423        O  0.19911085  0.42449474  0.08014212    -0.83800
C424        C  0.19902716  0.43364435  0.04457190     1.03900
O425        O  0.19629710  0.46935966  0.03441310    -0.76600
O426        O  0.18787447  0.54905665  0.03687142    -0.76800
C427        C  0.14392723  0.53462999  0.03586998     1.03900
O428        O  0.19293479  0.58992142  0.10851248    -0.84100
O429        O  0.16683366  0.52885261  0.17131635    -0.81100
C430        C  0.15939901  0.49383973  0.19192202     0.99400
O431        O  0.15319834  0.45586064  0.17657917    -0.81200
O432        O  0.24249396  0.48433541  0.14778699    -0.83800
C433        C  0.27822896  0.50784895  0.12646405     1.03900
O434        O  0.27242463  0.51236192  0.09094422    -0.76600
O435        O  0.25723128  0.58651275  0.09764158    -0.76700
C436        C  0.23778710  0.61018081  0.10600774     1.03800
Cr437      Cr  0.14441861  0.52026914  0.11708766     1.93700
Cr438      Cr  0.17621836  0.44617082  0.12585927     1.93200
Cr439      Cr  0.22496044  0.52691849  0.06759597     1.39100
O440        O  0.18164890  0.49776566  0.10343606    -1.21800
O441        O  0.12524483  0.59208752  0.92902822    -0.84100
O442        O  0.07843315  0.63725577  0.90041393    -0.81100
C443        C  0.07199264  0.66876841  0.88502011     0.99400
O444        O  0.10466698  0.70211594  0.86583275    -0.81200
O445        O  0.18103918  0.75362638  0.91787290    -0.83800
C446        C  0.21724974  0.76353778  0.93847666     1.03900
O447        O  0.24273727  0.74603316  0.92968687    -0.76600
O448        O  0.18155781  0.65721032  0.95692501    -0.76800
C449        C  0.14743436  0.61516990  0.95919164     1.03900
O450        O  0.15802806  0.59191191  0.85067268    -0.84100
O451        O  0.10677823  0.63105618  0.82267370    -0.81100
C452        C  0.13392331  0.66287278  0.79902897     0.99400
O453        O  0.16852477  0.70208671  0.81089325    -0.81200
O454        O  0.24633529  0.76160074  0.85723223    -0.83800
C455        C  0.27364533  0.74463798  0.85349902     1.03900
O456        O  0.26054498  0.70310067  0.86455884    -0.76600
O457        O  0.20959658  0.61540656  0.89803445    -0.76700
C458        C  0.19254236  0.59194828  0.86731413     1.03800
Cr459      Cr  0.12061617  0.61715744  0.87640103     1.93700
Cr460      Cr  0.17482611  0.72633597  0.86442610     1.93200
Cr461      Cr  0.22002234  0.67992190  0.91028041     1.39100
O462        O  0.17139787  0.67423651  0.88348083    -1.21800
O463        O  0.47017691  0.91124370  0.92071099    -0.84100
O464        O  0.56057594  0.94497395  0.89388759    -0.81100
C465        C  0.59676171  0.94632098  0.87992907     0.99400
O466        O  0.59366083  0.90968518  0.86430494    -0.81200
O467        O  0.57127975  0.84285350  0.92400277    -0.83800
C468        C  0.54619495  0.81460975  0.95047443     1.03900
O469        O  0.50150825  0.79568889  0.94974124    -0.76600
O470        O  0.48122775  0.86716075  0.96208562    -0.76800
C471        C  0.47999882  0.90439169  0.95442125     1.03900
O472        O  0.43238479  0.86057768  0.85009013    -0.84100
O473        O  0.52159717  0.90345584  0.82000542    -0.81100
C474        C  0.51796070  0.86932286  0.80032947     0.99400
O475        O  0.52020818  0.83568354  0.81664293    -0.81200
O476        O  0.50349381  0.76890531  0.87373119    -0.83800
C477        C  0.45917190  0.74164321  0.87802055     1.03900
O478        O  0.43336924  0.75778197  0.88958550    -0.76600
O479        O  0.40504635  0.82296816  0.90492958    -0.76700
C480        C  0.39808160  0.83462070  0.87165707     1.03800
Cr481      Cr  0.49659521  0.90127518  0.87249256     1.93700
Cr482      Cr  0.54391461  0.84026154  0.87102141     1.93200
Cr483      Cr  0.45826602  0.81386974  0.92400591     1.39100
O484        O  0.49957997  0.85139067  0.88905579    -1.21800
O485        O  0.46319784  0.90314614  0.07861534    -0.84100
O486        O  0.41051012  0.94654023  0.09005859    -0.81100
C487        C  0.37510136  0.95205841  0.09365535     0.99400
O488        O  0.33574561  0.91887858  0.10674970    -0.81200
O489        O  0.29319550  0.84924407  0.04931401    -0.83800
C490        C  0.29694468  0.82524772  0.02232265     1.03900
O491        O  0.32056358  0.80472706  0.02699641    -0.76600
O492        O  0.41621805  0.86939147  0.02957336    -0.76800
C493        C  0.45548103  0.90164479  0.04297048     1.03900
O494        O  0.42662262  0.85086747  0.14775406    -0.84100
O495        O  0.38739243  0.90760109  0.16437000    -0.81100
C496        C  0.35121812  0.87728967  0.18193565     0.99400
O497        O  0.31738214  0.84367376  0.16317673    -0.81200
O498        O  0.27317230  0.77496493  0.10487704    -0.83800
C499        C  0.28722714  0.74506529  0.10288748     1.03900
O500        O  0.32909195  0.75768239  0.09291506    -0.76600
O501        O  0.42517419  0.81513517  0.09345170    -0.76700
C502        C  0.43497196  0.82262498  0.12916097     1.03800
Cr503      Cr  0.41767442  0.89836728  0.11854364     1.93700
Cr504      Cr  0.30923770  0.84708553  0.10544925     1.93200
Cr505      Cr  0.37228623  0.81478953  0.06320834     1.39100
O506        O  0.36554588  0.85285674  0.09571909    -1.21800
O507        O  0.49179170  0.59172546  0.07798923    -0.84100
O508        O  0.56926455  0.63802393  0.12886260    -0.81100
C509        C  0.59992039  0.66178851  0.10375131     0.99400
O510        O  0.60043146  0.69712268  0.08823588    -0.81200
O511        O  0.56588713  0.75428513  0.05893060    -0.83800
C512        C  0.53696967  0.73414746  0.03101962     1.03900
O513        O  0.49778556  0.69659629  0.03611521    -0.76600
O514        O  0.43653715  0.60945895  0.06414278    -0.76800
C515        C  0.45686016  0.58590101  0.05757600     1.03900
O516        O  0.42987784  0.58995339  0.13658348    -0.84100
O517        O  0.51026157  0.65016434  0.18149866    -0.81100
C518        C  0.54780867  0.68796050  0.19164113     0.99400
O519        O  0.57857638  0.71439514  0.16691907    -0.81200
O520        O  0.54243081  0.76643575  0.13654377    -0.83800
C521        C  0.50735862  0.76904775  0.12434884     1.03900
O522        O  0.47872213  0.74000350  0.09971652    -0.76600
O523        O  0.42157285  0.65178579  0.13077652    -0.76700
C524        C  0.40417043  0.60860957  0.13939045     1.03800
Cr525      Cr  0.50131267  0.62174843  0.12983888     1.93700
Cr526      Cr  0.56762364  0.72867262  0.11224071     1.93200
Cr527      Cr  0.46260363  0.67487861  0.08467019     1.39100
O528        O  0.51075715  0.67567322  0.10880969    -1.21800
C529        C  0.45653367  0.79756022  0.14762403    -0.15200
C530        C  0.50004979  0.80791154  0.13664375    -0.30300
H531        H  0.43170152  0.76164447  0.15734131     0.13900
H532        H  0.52478089  0.84316793  0.12564806     0.14400
C533        C  0.56673563  0.80076634  0.98295357    -0.15200
C534        C  0.54528945  0.75402806  0.99149887    -0.30300
H535        H  0.58948580  0.82759655  0.00396744     0.13900
H536        H  0.52201785  0.72902963  0.96945394     0.14400
C537        C  0.49079688  0.94187515  0.02001030    -0.15200
C538        C  0.49665080  0.94410545  0.98180296    -0.30300
H539        H  0.51162447  0.97507454  0.03583815     0.13900
H540        H  0.51941941  0.97923839  0.96967282     0.14400
C541        C  0.23049915  0.79357338  0.97396520    -0.15200
C542        C  0.27700723  0.82171144  0.98300068    -0.30300
H543        H  0.20365932  0.78416613  0.99588048     0.13900
H544        H  0.30230610  0.82875997  0.96011980     0.14400
C545        C  0.34913051  0.81815269  0.85932796    -0.15200
C546        C  0.32377238  0.77493888  0.84326486    -0.30300
H547        H  0.33091190  0.83381704  0.87383747     0.13900
H548        H  0.34231912  0.75728782  0.83288254     0.14400
C549        C  0.13837048  0.59282357  0.99737776    -0.15200
C550        C  0.12512948  0.54695050  0.00198038    -0.30300
H551        H  0.15401564  0.61678485  0.02194305     0.13900
H552        H  0.11290546  0.52280496  0.97745187     0.14400
C553        C  0.26892352  0.66230227  0.10974302    -0.15200
C554        C  0.25350499  0.69368564  0.10991637    -0.30300
H555        H  0.30686089  0.67555691  0.10808781     0.13900
H556        H  0.21574856  0.68118903  0.11154723     0.14400
C557        C  0.32760826  0.53124782  0.14162966    -0.15200
C558        C  0.35212861  0.57910082  0.14579120    -0.30300
H559        H  0.34658797  0.51196551  0.13921166     0.13900
H560        H  0.33238778  0.59781551  0.14587059     0.14400
C561        C  0.19336117  0.40334651  0.97869810    -0.15200
C562        C  0.20983463  0.40759078  0.01506008    -0.30300
H563        H  0.16051078  0.40396185  0.97515098     0.13900
H564        H  0.24242947  0.40689254  0.01999131     0.14400
C565        C  0.39095226  0.53111524  0.01839547    -0.15200
C566        C  0.43795003  0.55232480  0.02524838    -0.30300
H567        H  0.36751590  0.52751857  0.04192874     0.13900
H568        H  0.46230807  0.55518169  0.00287036     0.14400
C569        C  0.39990156  0.65975196  0.89324138    -0.15200
C570        C  0.43861022  0.68969372  0.87322111    -0.30300
H571        H  0.38236352  0.67420056  0.91031849     0.13900
H572        H  0.45874550  0.67647286  0.85834916     0.14400
C573        C  0.20316557  0.52267830  0.85689369    -0.15200
C574        C  0.21713398  0.56876681  0.85063442    -0.30300
H575        H  0.16610035  0.49718441  0.86280783     0.13900
H576        H  0.25474742  0.59320656  0.84560743     0.14400
C577        C  0.99391755  0.35586461  0.13115641    -0.15200
C578        C  0.02614237  0.38357606  0.10457035    -0.30300
H579        H  0.00552929  0.34585603  0.15720205     0.13900
H580        H  0.01338866  0.39344169  0.07908679     0.14400
C581        C  0.38257459  0.99916396  0.08305981    -0.15200
C582        C  0.37653261  0.02739105  0.10792875    -0.30300
H583        H  0.40726671  0.01613088  0.05947721     0.13900
H584        H  0.35288762  0.01216055  0.13229849     0.14400
C585        C  0.65688079  0.24942819  0.13242304    -0.15200
C586        C  0.68572122  0.23149062  0.13729388    -0.30300
H587        H  0.67215330  0.28746452  0.12810215     0.13900
H588        H  0.67098411  0.19328878  0.13960698     0.14400
C589        C  0.99081181  0.63577197  0.90982371    -0.15200
C590        C  0.02392395  0.66268845  0.88399091    -0.30300
H591        H  0.00214810  0.62739598  0.93684288     0.13900
H592        H  0.01278764  0.67110505  0.85686607     0.14400
C593        C  0.90765334  0.47135175  0.00203062    -0.15200
C594        C  0.90585799  0.43021000  0.01026596    -0.30300
H595        H  0.90597270  0.49240785  0.02555637     0.13900
H596        H  0.90328620  0.40781407  0.98602940     0.14400
C597        C  0.65286783  0.02620526  0.90418427    -0.15200
C598        C  0.64083845  0.99279601  0.87691289    -0.30300
H599        H  0.63634403  0.01588694  0.93233668     0.13900
H600        H  0.65734472  0.00280418  0.84873002     0.14400
C601        C  0.57530751  0.12320407  0.99211480    -0.15200
C602        C  0.54684550  0.14156239  0.99636776    -0.30300
H603        H  0.58422536  0.10851532  0.01681794     0.13900
H604        H  0.54045442  0.15757309  0.97107182     0.14400
C605        C  0.79021540  0.20784605  0.03300194    -0.15200
C606        C  0.80340740  0.21575913  0.99612878    -0.30300
H607        H  0.75413408  0.17962779  0.03899771     0.13900
H608        H  0.83908529  0.24412788  0.98919509     0.14400
C609        C  0.80849010  0.32443030  0.86797850    -0.15200
C610        C  0.78611561  0.34943291  0.86983251    -0.30300
H611        H  0.84703656  0.34212242  0.86878329     0.13900
H612        H  0.74743691  0.33009316  0.86993137     0.14400
C613        C  0.37156884  0.38866437  0.91113168    -0.15200
C614        C  0.37449559  0.35912477  0.88574796    -0.30300
H615        H  0.39405011  0.39852298  0.93687226     0.13900
H616        H  0.35322880  0.34875025  0.85938672     0.14400
C617        C  0.43078021  0.21430809  0.97847070    -0.15200
C618        C  0.42239620  0.22514406  0.01369130    -0.30300
H619        H  0.43908871  0.18597435  0.97645888     0.13900
H620        H  0.41904464  0.25655469  0.01659156     0.14400
C621        C  0.66470756  0.46744949  0.89008757    -0.15200
C622        C  0.69445937  0.47168359  0.86154214    -0.30300
H623        H  0.68037971  0.48411093  0.91773963     0.13900
H624        H  0.68105140  0.45511357  0.83353695     0.14400
C625        C  0.61229093  0.26158969  0.87754751    -0.15200
C626        C  0.56535379  0.24398054  0.87109882    -0.30300
H627        H  0.63536311  0.29964039  0.88221040     0.13900
H628        H  0.54170356  0.20602063  0.86663653     0.14400
C629        C  0.67247179  0.65539204  0.11002673    -0.15200
C630        C  0.63147321  0.64404312  0.09138796    -0.30300
H631        H  0.69053218  0.68761866  0.12733445     0.13900
H632        H  0.61320725  0.61013071  0.07618705     0.14400
C633        C  0.79638336  0.57163420  0.02184173    -0.15200
C634        C  0.78415422  0.56531343  0.98472353    -0.30300
H635        H  0.83047155  0.57626027  0.03098921     0.13900
H636        H  0.75117442  0.56304358  0.97526583     0.14400
C637        C  0.54201632  0.42654767  0.01254106    -0.15200
C638        C  0.57314719  0.47263278  0.01999357    -0.30300
H639        H  0.53215238  0.40166948  0.03647599     0.13900
H640        H  0.58514351  0.49886621  0.99706633     0.14400
C641        C  0.58780292  0.36425290  0.14673554    -0.15200
C642        C  0.54082860  0.33612178  0.13964099    -0.30300
H643        H  0.60905022  0.34759675  0.15195432     0.13900
H644        H  0.51851896  0.35149297  0.13428964     0.14400
C645        C  0.79680321  0.47968862  0.14872029    -0.15200
C646        C  0.78375366  0.43661188  0.13305519    -0.30300
H647        H  0.82990310  0.49986402  0.16479138     0.13900
H648        H  0.75004778  0.41838263  0.11737937     0.14400
C649        C  0.66031062  0.15065190  0.74147700    -0.15200
C650        C  0.69527354  0.16399581  0.76771231    -0.30300
H651        H  0.62367436  0.13412953  0.75090597     0.13900
H652        H  0.73131740  0.17674899  0.75798369     0.14400
C653        C  0.87813731  0.36354999  0.27464920    -0.15200
C654        C  0.85301778  0.32905181  0.24888756    -0.30300
H655        H  0.90446487  0.39884007  0.26475637     0.13900
H656        H  0.82665720  0.29406419  0.25943435     0.14400
C657        C  0.77961903  0.20740660  0.51696039    -0.15200
C658        C  0.81721692  0.24541905  0.50121142    -0.30300
H659        H  0.75297131  0.18034075  0.49797467     0.13900
H660        H  0.84392869  0.27254727  0.52011777     0.14400
C661        C  0.86007311  0.55094226  0.74679754    -0.15200
C662        C  0.87460764  0.52523192  0.76704344    -0.30300
H663        H  0.84657451  0.57094129  0.76171551     0.13900
H664        H  0.88468452  0.50235987  0.75218692     0.14400
C665        C  0.87811533  0.47123134  0.51582689    -0.15200
C666        C  0.87484081  0.42879688  0.51336774    -0.30300
H667        H  0.87832999  0.48978857  0.48963912     0.13900
H668        H  0.86920446  0.40785584  0.53936047     0.14400
C669        C  0.77685355  0.36557615  0.65387593    -0.15200
C670        C  0.79353008  0.33606572  0.64680116    -0.30300
H671        H  0.73904811  0.35028566  0.65890892     0.13900
H672        H  0.83095005  0.35054267  0.64061868     0.14400
C673        C  0.48751310  0.13363233  0.25966804    -0.15200
C674        C  0.46776135  0.15160807  0.23590913    -0.30300
H675        H  0.51030490  0.12159426  0.24782144     0.13900
H676        H  0.44794196  0.16669868  0.24852323     0.14400
C677        C  0.55096228  0.11769180  0.49280900    -0.15200
C678        C  0.59786106  0.13827849  0.49928959    -0.30300
H679        H  0.52555186  0.10087792  0.51589540     0.13900
H680        H  0.62167246  0.15513091  0.47509097     0.14400
C681        C  0.65634696  0.23689468  0.36455622    -0.15200
C682        C  0.68755198  0.22172242  0.36973304    -0.30300
H683        H  0.67008014  0.27439056  0.35859085     0.13900
H684        H  0.67531947  0.18453099  0.37542904     0.14400
C685        C  0.46619312  0.31890701  0.74441852    -0.15200
C686        C  0.48366219  0.35708377  0.76800398    -0.30300
H687        H  0.45577251  0.28410490  0.75629028     0.13900
H688        H  0.49377838  0.39189489  0.75635387     0.14400
C689        C  0.43371513  0.21985932  0.51705090    -0.15200
C690        C  0.43664374  0.22928022  0.47882613    -0.30300
H691        H  0.43332916  0.18762472  0.52587431     0.13900
H692        H  0.43792533  0.26169600  0.46922702     0.14400
C693        C  0.64874495  0.43357373  0.66031838    -0.15200
C694        C  0.67799612  0.47885337  0.64935455    -0.30300
H695        H  0.66379259  0.41193132  0.66931966     0.13900
H696        H  0.66317786  0.50046936  0.63964556     0.14400
C697        C  0.53543517  0.22093842  0.63483140    -0.15200
C698        C  0.58261371  0.23834537  0.63729944    -0.30300
H699        H  0.51107261  0.18313029  0.63009152     0.13900
H700        H  0.60674624  0.27646504  0.64044278     0.14400
C701        C  0.68858374  0.55032836  0.24653061    -0.15200
C702        C  0.65055345  0.53194516  0.26913197    -0.30300
H703        H  0.72410860  0.56972887  0.25916163     0.13900
H704        H  0.61513263  0.51524063  0.25625957     0.14400
C705        C  0.78817270  0.58089805  0.51621075    -0.15200
C706        C  0.74305309  0.56324279  0.50352225    -0.30300
H707        H  0.81760749  0.59795305  0.49629534     0.13900
H708        H  0.71460934  0.54579745  0.52433381     0.14400
C709        C  0.54524701  0.43814926  0.49147272    -0.15200
C710        C  0.56073137  0.45234028  0.52738473    -0.30300
H711        H  0.51043530  0.40687408  0.48627619     0.13900
H712        H  0.59438931  0.48483713  0.53295016     0.14400
C713        C  0.53575132  0.34732050  0.36628485    -0.15200
C714        C  0.53666325  0.31352566  0.34505269    -0.25500
H715        H  0.51013455  0.33585828  0.38955682     0.13900
H716        H  0.56274390  0.32292968  0.32246479     0.14400
C717        C  0.77536609  0.47114125  0.37349187    -0.15200
C718        C  0.76378738  0.42510582  0.37482802    -0.30300
H719        H  0.81243458  0.49916229  0.37525310     0.13900
H720        H  0.72644982  0.39762639  0.37511706     0.14400
C721        C  0.53145285  0.66986659  0.26035019    -0.15200
C722        C  0.55583179  0.70178500  0.23281942    -0.30300
H723        H  0.50824140  0.63272420  0.25240143     0.13900
H724        H  0.58142333  0.73842130  0.24054873     0.14400
C725        C  0.62954834  0.65755342  0.39036635    -0.15200
C726        C  0.62161398  0.62067262  0.41267693    -0.30300
H727        H  0.65582327  0.66953127  0.36766235     0.13900
H728        H  0.59451964  0.60912050  0.43475102     0.14400
C729        C  0.31623527  0.85485336  0.24814641    -0.15200
C730        C  0.35157825  0.88338403  0.22449627    -0.30300
H731        H  0.28374298  0.82556903  0.23594533     0.13900
H732        H  0.38404918  0.91229819  0.23711228     0.14400
C733        C  0.34202787  0.98474661  0.37576828    -0.15200
C734        C  0.37122198  0.01860346  0.40103491    -0.30300
H735        H  0.33181351  0.99510921  0.34917691     0.13900
H736        H  0.38130935  0.00712031  0.42711355     0.14400
C737        C  0.48732270  0.81503666  0.34166956    -0.15200
C738        C  0.44367020  0.80245543  0.32898235    -0.30300
H739        H  0.51096596  0.85129770  0.35161298     0.13900
H740        H  0.42044060  0.76610772  0.31905195     0.14400
C741        C  0.15753898  0.46554448  0.25839612    -0.15200
C742        C  0.15515837  0.49646916  0.23402062    -0.30300
H743        H  0.16586152  0.43932863  0.24766684     0.13900
H744        H  0.15062434  0.52496911  0.24537456     0.14400
C745        C  0.01951214  0.37131443  0.38827787    -0.15200
C746        C  0.99212884  0.37805101  0.41317536    -0.30300
H747        H  0.00377871  0.34458787  0.36563375     0.13900
H748        H  0.00988055  0.40549833  0.43519935     0.14400
C749        C  0.20247460  0.65598205  0.34656183    -0.15200
C750        C  0.24828362  0.68665899  0.34029864    -0.30300
H751        H  0.17954753  0.66902980  0.35627110     0.13900
H752        H  0.27107848  0.67235071  0.33307966     0.14400
C753        C  0.32440917  0.55355911  0.36514295    -0.15200
C754        C  0.35320238  0.59902367  0.35466693    -0.30300
H755        H  0.33948666  0.53170011  0.37337532     0.13900
H756        H  0.33782577  0.62105747  0.34804234     0.14400
C757        C  0.53057411  0.85534525  0.73250342    -0.15200
C758        C  0.51070824  0.87034014  0.75819924    -0.30300
H759        H  0.55324332  0.84198767  0.74261170     0.13900
H760        H  0.49227286  0.88827718  0.74796034     0.14400
C761        C  0.62096388  0.99604253  0.59559903    -0.15200
C762        C  0.65440470  0.02849982  0.61936839    -0.30300
H763        H  0.60681589  0.00778483  0.57225864     0.13900
H764        H  0.66794761  0.01707420  0.64337490     0.14400
C765        C  0.59332782  0.81163624  0.50630125    -0.15200
C766        C  0.59036165  0.82330242  0.46971122    -0.30300
H767        H  0.59918953  0.78216892  0.51199415     0.13900
H768        H  0.58392784  0.85265653  0.46527251     0.14400
C769        C  0.44063520  0.89020503  0.50921611    -0.15200
C770        C  0.45456872  0.89632013  0.47206096    -0.30300
H771        H  0.40538020  0.88391125  0.51566348     0.13900
H772        H  0.48979689  0.90289019  0.46515575     0.14400
C773        C  0.14918004  0.68694504  0.73060845    -0.15200
C774        C  0.12443725  0.65332534  0.75704720    -0.30300
H775        H  0.17592772  0.72234839  0.74029500     0.13900
H776        H  0.09742427  0.61784277  0.74778434     0.14400
C777        C  0.98458468  0.65063399  0.62006953    -0.15200
C778        C  0.01381016  0.65077240  0.59299074    -0.30300
H779        H  0.99922874  0.67111103  0.64644052     0.13900
H780        H  0.99731002  0.62874416  0.56754923     0.14400
C781        C  0.10002634  0.54796430  0.50841362    -0.15200
C782        C  0.10457138  0.56226160  0.47169281    -0.30300
H783        H  0.09747721  0.51419320  0.51529932     0.13900
H784        H  0.10486007  0.59494538  0.46464154     0.14400
C785        C  0.25283605  0.79223639  0.48594177    -0.15200
C786        C  0.20712104  0.76671573  0.49687422    -0.30300
H787        H  0.27999738  0.79607945  0.50652480     0.13900
H788        H  0.17856120  0.76078034  0.47711618     0.14400
C789        C  0.34873597  0.75011619  0.61737514    -0.15200
C790        C  0.31841743  0.76652763  0.62156340    -0.30300
H791        H  0.33472557  0.71228521  0.61295793     0.13900
H792        H  0.33206562  0.80441071  0.62492080     0.14400
C793        C  0.32517454  0.47393157  0.74567167    -0.15200
C794        C  0.35905495  0.49217340  0.77318994    -0.30300
H795        H  0.28816694  0.45379498  0.75429327     0.13900
H796        H  0.39621503  0.51286863  0.76513969     0.14400
C797        C  0.37171798  0.36703856  0.61826323    -0.15200
C798        C  0.38230892  0.40842472  0.60065433    -0.30300
H799        H  0.34194846  0.34988217  0.63785730     0.13900
H800        H  0.41270190  0.42425086  0.58149609     0.14400
C801        C  0.21376873  0.45575130  0.49623232    -0.15200
C802        C  0.25904564  0.47970674  0.50954912    -0.30300
H803        H  0.18502530  0.43121071  0.51471693     0.13900
H804        H  0.28669674  0.50433975  0.49023300     0.14400
C805        C  0.45371337  0.60928732  0.52796479    -0.15200
C806        C  0.43825175  0.59949535  0.49130082    -0.30300
H807        H  0.48900944  0.63879219  0.53474441     0.13900
H808        H  0.40417891  0.56778390  0.48505395     0.14400
C809        C  0.45435032  0.68079007  0.66065314    -0.15200
C810        C  0.49296256  0.70110286  0.63807780    -0.30300
H811        H  0.44312655  0.70309248  0.67491237     0.13900
H812        H  0.50030369  0.67800278  0.62048779     0.14400
C813        C  0.18888032  0.54054834  0.63243133    -0.15200
C814        C  0.22430497  0.54974811  0.65699741    -0.30300
H815        H  0.18066850  0.51435489  0.60977120     0.13900
H816        H  0.23649579  0.57988195  0.67655014     0.14400
loop_ 
_geom_bond_atom_site_label_1 
_geom_bond_atom_site_label_2 
_geom_bond_distance 
_geom_bond_site_symmetry_2 
_ccdc_geom_bond_type 
O1          Cr19   1.959       .  S
O1            C9   1.264       .  A
O2          Cr19   2.004       .  S
O2            C3   1.259       .  A
C3            O4   1.260       .  A
C3          C802   1.474       .  S
O4          Cr20   2.004       .  S
O5          Cr20   2.039       .  S
O5            C6   1.268       .  A
C6            O7   1.257       .  A
C6          C798   1.486       .  S
O7          Cr21   1.967       .  S
O8          Cr21   2.044       .  S
O8            C9   1.276       .  A
C9          C805   1.477       .  S
O10         Cr19   1.986       .  S
O10          C18   1.256       .  A
O11         Cr19   1.955       .  S
O11          C12   1.256       .  A
C12          O13   1.278       .  A
C12         C814   1.468       .  S
O13         Cr20   2.045       .  S
O14         Cr20   1.955       .  S
O14          C15   1.257       .  A
C15          O16   1.275       .  A
C15         C793   1.480       .  S
O16         Cr21   2.033       .  S
O17         Cr21   1.991       .  S
O17          C18   1.256       .  A
C18         C809   1.468       .  S
Cr19         O22   1.762       .  S
Cr20         O22   1.784       .  S
Cr21         O22   1.771       .  S
O23         Cr41   1.960       .  S
O23          C31   1.261       .  A
O24         Cr41   2.001       .  S
O24          C25   1.259       .  A
C25          O26   1.259       .  A
C25         C786   1.486       .  S
O26         Cr42   2.008       .  S
O27         Cr42   2.037       .  S
O27          C28   1.271       .  A
C28          O29   1.254       .  A
C28         C778   1.474       .  S
O29         Cr43   1.952       .  S
O30         Cr43   2.031       .  S
O30          C31   1.272       .  A
C31         C781   1.466       .  S
O32         Cr41   2.002       .  S
O32          C40   1.259       .  A
O33         Cr41   1.957       .  S
O33          C34   1.262       .  A
C34          O35   1.279       .  A
C34         C790   1.482       .  S
O35         Cr42   2.047       .  S
O36         Cr42   1.966       .  S
O36          C37   1.258       .  A
C37          O38   1.270       .  A
C37         C773   1.481       .  S
O38         Cr43   2.022       .  S
O39         Cr43   1.988       .  S
O39          C40   1.257       .  A
C40         C813   1.467       .  S
Cr41         O44   1.759       .  S
Cr42         O44   1.774       .  S
Cr43         O44   1.774       .  S
O45         Cr63   1.998       .  S
O45          C53   1.264       .  A
O46         Cr63   1.982       .  S
O46          C47   1.258       .  A
C47          O48   1.262       .  A
C47         C765   1.480       .  S
O48         Cr64   2.020       .  S
O49         Cr64   1.988       .  S
O49          C50   1.266       .  A
C50          O51   1.269       .  A
C50         C761   1.465       .  S
O51         Cr65   2.005       .  S
O52         Cr65   2.005       .  S
O52          C53   1.265       .  A
C53         C769   1.481       .  S
O54         Cr63   1.978       .  S
O54          C62   1.260       .  A
O55         Cr63   2.008       .  S
O55          C56   1.267       .  A
C56          O57   1.261       .  A
C56         C810   1.466       .  S
O57         Cr64   1.987       .  S
O58         Cr64   1.990       .  S
O58          C59   1.258       .  A
C59          O60   1.264       .  A
C59         C757   1.480       .  S
O60         Cr65   2.005       .  S
O61         Cr65   2.009       .  S
O61          C62   1.265       .  A
C62         C789   1.476       .  S
Cr63         O66   1.763       .  S
Cr64         O66   1.782       .  S
Cr65         O66   1.776       .  S
O67         Cr85   1.977       .  S
O67          C75   1.265       .  A
O68         Cr85   1.992       .  S
O68          C69   1.258       .  A
C69          O70   1.263       .  A
C69         C801   1.487       .  S
O70         Cr86   2.015       .  S
O71         Cr86   2.027       .  S
O71          C72   1.266       .  A
C72          O73   1.254       .  A
C72         C745   1.475       .  S
O73         Cr87   1.942       .  S
O74         Cr87   2.014       .  S
O74          C75   1.267       .  A
C75         C782   1.464       .  S
O76         Cr85   1.994       .  S
O76          C84   1.258       .  A
O77         Cr85   1.968       .  S
O77          C78   1.265       .  A
C78          O79   1.275       .  A
C78         C753   1.479       .  S
O79         Cr86   2.033       .  S
O80         Cr86   1.975       .  S
O80          C81   1.259       .  A
C81          O82   1.266       .  A
C81         C741   1.471       .  S
O82         Cr87   1.998       .  S
O83         Cr87   1.979       .  S
O83          C84   1.254       .  A
C84         C749   1.463       .  S
Cr85         O88   1.758       .  S
Cr86         O88   1.782       .  S
Cr87         O88   1.773       .  S
O89        Cr107   1.964       .  S
O89          C97   1.259       .  A
O90        Cr107   1.990       .  S
O90          C91   1.258       .  A
C91          O92   1.265       .  A
C91         C785   1.475       .  S
O92        Cr108   2.014       .  S
O93        Cr108   2.041       .  S
O93          C94   1.273       .  A
C94          O95   1.259       .  A
C94         C733   1.485       .  S
O95        Cr109   1.969       .  S
O96        Cr109   2.063       .  S
O96          C97   1.280       .  A
C97         C770   1.488       .  S
O98        Cr107   1.990       .  S
O98         C106   1.258       .  A
O99        Cr107   1.949       .  S
O99         C100   1.254       .  A
C100        O101   1.278       .  A
C100        C750   1.468       .  S
O101       Cr108   2.043       .  S
O102       Cr108   1.971       .  S
O102        C103   1.257       .  A
C103        O104   1.276       .  A
C103        C729   1.491       .  S
O104       Cr109   2.037       .  S
O105       Cr109   1.985       .  S
O105        C106   1.253       .  A
C106        C738   1.457       .  S
Cr107       O110   1.754       .  S
Cr108       O110   1.773       .  S
Cr109       O110   1.762       .  S
O111       Cr129   1.997       .  S
O111        C119   1.264       .  A
O112       Cr129   1.983       .  S
O112        C113   1.259       .  A
C113        O114   1.266       .  A
C113        C766   1.469       .  S
O114       Cr130   2.007       .  S
O115       Cr130   2.016       .  S
O115        C116   1.265       .  A
C116        O117   1.262       .  A
C116        C725   1.480       .  S
O117       Cr131   1.971       .  S
O118       Cr131   2.000       .  S
O118        C119   1.262       .  A
C119        C806   1.470       .  S
O120       Cr129   1.988       .  S
O120        C128   1.259       .  A
O121       Cr129   1.972       .  S
O121        C122   1.262       .  A
C122        O123   1.265       .  A
C122        C737   1.467       .  S
O123       Cr130   2.012       .  S
O124       Cr130   1.992       .  S
O124        C125   1.264       .  A
C125        O126   1.261       .  A
C125        C721   1.471       .  S
O126       Cr131   1.991       .  S
O127       Cr131   1.992       .  S
O127        C128   1.261       .  A
C128        C754   1.464       .  S
Cr129       O132   1.762       .  S
Cr130       O132   1.785       .  S
Cr131       O132   1.768       .  S
O133       Cr151   1.987       .  S
O133        C141   1.258       .  A
O134       Cr151   1.948       .  S
O134        C135   1.252       .  A
C135        O136   1.271       .  A
C135        C726   1.469       .  S
O136       Cr152   2.039       .  S
O137       Cr152   2.005       .  S
O137        C138   1.261       .  A
C138        O139   1.261       .  A
C138        C706   1.476       .  S
O139       Cr153   2.005       .  S
O140       Cr153   1.972       .  S
O140        C141   1.262       .  A
C141        C709   1.449       .  S
O142       Cr151   1.985       .  S
O142        C150   1.259       .  A
O143       Cr151   1.985       .  S
O143        C144   1.260       .  A
C144        O145   1.265       .  A
C144        C702   1.466       .  S
O145       Cr152   1.983       .  S
O146       Cr152   2.050       .  S
O146        C147   1.277       .  A
C147        O148   1.261       .  A
C147        C717   1.490       .  S
O148       Cr153   1.960       .  S
O149       Cr153   2.007       .  S
O149        C150   1.265       .  A
C150        C713   1.466       .  S
Cr151       O154   1.770       .  S
Cr152       O154   1.774       .  S
Cr153       O154   1.753       .  S
O155       Cr173   2.010       .  S
O155        C163   1.264       .  A
O156       Cr173   1.950       .  S
O156        C157   1.257       .  A
C157        O158   1.279       .  A
C157        C797   1.499       .  S
O158       Cr174   2.064       .  S
O159       Cr174   2.028       .  S
O159        C160   1.271       .  A
C160        O161   1.259       .  A
C160        C689   1.495       .  S
O161       Cr175   1.998       .  S
O162       Cr175   1.946       .  S
O162        C163   1.260       .  A
C163        C710   1.450       .  S
O164       Cr173   1.987       .  S
O164        C172   1.256       .  A
O165       Cr173   1.997       .  S
O165        C166   1.262       .  A
C166        O167   1.259       .  A
C166        C685   1.476       .  S
O167       Cr174   1.981       .  S
O168       Cr174   2.044       .  S
O168        C169   1.275       .  A
C169        O170   1.258       .  A
C169        C697   1.477       .  S
O170       Cr175   1.941       .  S
O171       Cr175   2.003       .  S
O171        C172   1.261       .  A
C172        C693   1.465       .  S
Cr173       O176   1.774       .  S
Cr174       O176   1.778       .  S
Cr175       O176   1.749       .  S
O177       Cr195   1.994       .  S
O177        C185   1.259       .  A
O178       Cr195   1.999       .  S
O178        C179   1.265       .  A
C179        O180   1.268       .  A
C179        C734   1.477       .  S
O180       Cr196   2.008       .  S
O181       Cr196   2.064       .  S
O181        C182   1.278       .  A
C182        O183   1.262       .  A
C182        C690   1.502       .  S
O183       Cr197   1.987       .  S
O184       Cr197   1.983       .  S
O184        C185   1.261       .  A
C185        C677   1.467       .  S
O186       Cr195   2.029       .  S
O186        C194   1.268       .  A
O187       Cr195   1.974       .  S
O187        C188   1.258       .  A
C188        O189   1.274       .  A
C188        C673   1.490       .  S
O189       Cr196   2.033       .  S
O190       Cr196   2.006       .  S
O190        C191   1.261       .  A
C191        O192   1.260       .  A
C191        C714   1.474       .  S
O192       Cr197   1.986       .  S
O193       Cr197   1.966       .  S
O193        C194   1.258       .  A
C194        C681   1.472       .  S
Cr195       O198   1.777       .  S
Cr196       O198   1.768       .  S
Cr197       O198   1.758       .  S
O199       Cr217   2.014       .  S
O199        C207   1.269       .  A
O200       Cr217   1.970       .  S
O200        C201   1.259       .  A
C201        O202   1.267       .  A
C201        C777   1.484       .  S
O202       Cr218   2.029       .  S
O203       Cr218   2.019       .  S
O203        C204   1.265       .  A
C204        O205   1.259       .  A
C204        C705   1.485       .  S
O205       Cr219   1.995       .  S
O206       Cr219   1.959       .  S
O206        C207   1.257       .  A
C207        C665   1.456       .  S
O208       Cr217   1.993       .  S
O208        C216   1.257       .  A
O209       Cr217   1.999       .  S
O209        C210   1.267       .  A
C210        O211   1.263       .  A
C210        C661   1.469       .  S
O211       Cr218   1.975       .  S
O212       Cr218   2.043       .  S
O212        C213   1.276       .  A
C213        O214   1.260       .  A
C213        C694   1.476       .  S
O214       Cr219   1.960       .  S
O215       Cr219   1.998       .  S
O215        C216   1.259       .  A
C216        C669   1.469       .  S
Cr217       O220   1.768       .  S
Cr218       O220   1.771       .  S
Cr219       O220   1.755       .  S
O221       Cr239   2.011       .  S
O221        C229   1.269       .  A
O222       Cr239   1.964       .  S
O222        C223   1.258       .  A
C223        O224   1.267       .  A
C223        C746   1.469       .  S
O224       Cr240   2.022       .  S
O225       Cr240   2.012       .  S
O225        C226   1.261       .  A
C226        O227   1.258       .  A
C226        C658   1.480       .  S
O227       Cr241   2.001       .  S
O228       Cr241   1.962       .  S
O228        C229   1.255       .  A
C229        C666   1.460       .  S
O230       Cr239   2.001       .  S
O230        C238   1.262       .  A
O231       Cr239   2.006       .  S
O231        C232   1.266       .  A
C232        O233   1.271       .  A
C232        C653   1.486       .  S
O233       Cr240   1.995       .  S
O234       Cr240   2.056       .  S
O234        C235   1.276       .  A
C235        O236   1.257       .  A
C235        C682   1.483       .  S
O236       Cr241   1.944       .  S
O237       Cr241   2.000       .  S
O237        C238   1.263       .  A
C238        C718   1.474       .  S
Cr239       O242   1.764       .  S
Cr240       O242   1.771       .  S
Cr241       O242   1.754       .  S
O243       Cr261   2.025       .  S
O243        C251   1.269       .  A
O244       Cr261   1.964       .  S
O244        C245   1.257       .  A
C245        O246   1.266       .  A
C245        C762   1.478       .  S
O246       Cr262   2.024       .  S
O247       Cr262   2.010       .  S
O247        C248   1.264       .  A
C248        O249   1.261       .  A
C248        C657   1.479       .  S
O249       Cr263   2.006       .  S
O250       Cr263   1.957       .  S
O250        C251   1.256       .  A
C251        C678   1.466       .  S
O252       Cr261   1.973       .  S
O252        C260   1.254       .  A
O253       Cr261   2.011       .  S
O253        C254   1.270       .  A
C254        O255   1.269       .  A
C254        C649   1.481       .  S
O255       Cr262   1.986       .  S
O256       Cr262   2.049       .  S
O256        C257   1.274       .  A
C257        O258   1.257       .  A
C257        C670   1.482       .  S
O258       Cr263   1.958       .  S
O259       Cr263   1.996       .  S
O259        C260   1.262       .  A
C260        C698   1.457       .  S
Cr261       O264   1.768       .  S
Cr262       O264   1.771       .  S
Cr263       O264   1.755       .  S
O265       Cr283   1.991       .  S
O265        C273   1.260       .  A
O266       Cr283   1.975       .  S
O266        C267   1.263       .  A
C267        O268   1.261       .  A
C267        C633   1.463       .  S
O268       Cr284   1.998       .  S
O269       Cr284   2.020       .  S
O269        C270   1.271       .  A
C270        O271   1.262       .  A
C270        C629   1.484       .  S
O271       Cr285   1.982       .  S
O272       Cr285   2.006       .  S
O272        C273   1.261       .  A
C273        C638   1.479       .  S
O274       Cr283   1.968       .  S
O274        C282   1.258       .  A
O275       Cr283   1.976       .  S
O275        C276   1.259       .  A
C276        O277   1.271       .  A
C276        C645   1.497       .  S
O277       Cr284   2.033       .  S
O278       Cr284   1.985       .  S
O278        C279   1.260       .  A
C279        O280   1.266       .  A
C279        C701   1.465       .  S
O280       Cr285   1.983       .  S
O281       Cr285   2.025       .  S
O281        C282   1.267       .  A
C282        C641   1.471       .  S
Cr283       O286   1.757       .  S
Cr284       O286   1.782       .  S
Cr285       O286   1.776       .  S
O287       Cr305   1.959       .  S
O287        C295   1.256       .  A
O288       Cr305   2.001       .  S
O288        C289   1.261       .  A
C289        O290   1.260       .  A
C289        C617   1.472       .  S
O290       Cr306   1.998       .  S
O291       Cr306   2.038       .  S
O291        C292   1.270       .  A
C292        O293   1.261       .  A
C292        C614   1.488       .  S
O293       Cr307   1.967       .  S
O294       Cr307   2.053       .  S
O294        C295   1.275       .  A
C295        C637   1.478   1_556  S
O296       Cr305   2.003       .  S
O296        C304   1.263       .  A
O297       Cr305   1.956       .  S
O297        C298   1.259       .  A
C298        O299   1.277       .  A
C298        C626   1.486       .  S
O299       Cr306   2.053       .  S
O300       Cr306   1.966       .  S
O300        C301   1.261       .  A
C301        O302   1.270       .  A
C301        C686   1.479       .  S
O302       Cr307   2.023       .  S
O303       Cr307   2.002       .  S
O303        C304   1.259       .  A
C304        C621   1.473       .  S
Cr305       O308   1.753       .  S
Cr306       O308   1.774       .  S
Cr307       O308   1.768       .  S
O309       Cr327   1.982       .  S
O309        C317   1.259       .  A
O310       Cr327   1.987       .  S
O310        C311   1.263       .  A
C311        O312   1.261       .  A
C311        C606   1.477       .  S
O312       Cr328   2.008       .  S
O313       Cr328   1.994       .  S
O313        C314   1.265       .  A
C314        O315   1.266       .  A
C314        C597   1.467       .  S
O315       Cr329   2.000       .  S
O316       Cr329   2.014       .  S
O316        C317   1.266       .  A
C317        C601   1.479       .  S
O318       Cr327   1.977       .  S
O318        C326   1.261       .  A
O319       Cr327   1.983       .  S
O319        C320   1.261       .  A
C320        O321   1.264       .  A
C320        C609   1.465       .  S
O321       Cr328   2.000       .  S
O322       Cr328   1.992       .  S
O322        C323   1.261       .  A
C323        O324   1.265       .  A
C323        C650   1.477       .  S
O324       Cr329   2.001       .  S
O325       Cr329   2.018       .  S
O325        C326   1.266       .  A
C326        C625   1.479       .  S
Cr327       O330   1.760       .  S
Cr328       O330   1.780       .  S
Cr329       O330   1.777       .  S
O331       Cr349   1.995       .  S
O331        C339   1.261       .  A
O332       Cr349   1.981       .  S
O332        C333   1.262       .  A
C333        O334   1.259       .  A
C333        C634   1.460       .  S
O334       Cr350   1.995       .  S
O335       Cr350   2.005       .  S
O335        C336   1.265       .  A
C336        O337   1.261       .  A
C336        C589   1.468       .  S
O337       Cr351   1.986       .  S
O338       Cr351   2.008       .  S
O338        C339   1.263       .  A
C339        C593   1.480   1_556  S
O340       Cr349   1.968       .  S
O340        C348   1.258       .  A
O341       Cr349   1.980       .  S
O341        C342   1.263       .  A
C342        O343   1.269       .  A
C342        C622   1.485       .  S
O343       Cr350   2.018       .  S
O344       Cr350   1.994       .  S
O344        C345   1.264       .  A
C345        O346   1.262       .  A
C345        C662   1.471       .  S
O346       Cr351   1.983       .  S
O347       Cr351   2.012       .  S
O347        C348   1.266       .  A
C348        C610   1.468       .  S
Cr349       O352   1.755       .  S
Cr350       O352   1.774       .  S
Cr351       O352   1.776       .  S
O353       Cr371   1.961       .  S
O353        C361   1.259       .  A
O354       Cr371   1.992       .  S
O354        C355   1.257       .  A
C355        O356   1.260       .  A
C355        C618   1.471       .  S
O356       Cr372   2.002       .  S
O357       Cr372   2.041       .  S
O357        C358   1.272       .  A
C358        O359   1.256       .  A
C358        C582   1.485       .  S
O359       Cr373   1.948       .  S
O360       Cr373   2.058       .  S
O360        C361   1.279       .  A
C361        C602   1.483   1_554  S
O362       Cr371   1.989       .  S
O362        C370   1.258       .  A
O363       Cr371   1.946       .  S
O363        C364   1.259       .  A
C364        O365   1.278       .  A
C364        C642   1.482       .  S
O365       Cr372   2.055       .  S
O366       Cr372   1.963       .  S
O366        C367   1.257       .  A
C367        O368   1.275       .  A
C367        C674   1.488       .  S
O368       Cr373   2.045       .  S
O369       Cr373   1.986       .  S
O369        C370   1.256       .  A
C370        C585   1.461       .  S
Cr371       O374   1.755       .  S
Cr372       O374   1.776       .  S
Cr373       O374   1.769       .  S
O375       Cr393   1.955       .  S
O375        C383   1.258       .  A
O376       Cr393   1.987       .  S
O376        C377   1.256       .  A
C377        O378   1.259       .  A
C377        C605   1.465       .  S
O378       Cr394   1.995       .  S
O379       Cr394   2.039       .  S
O379        C380   1.272       .  A
C380        O381   1.260       .  A
C380        C577   1.491       .  S
O381       Cr395   1.975       .  S
O382       Cr395   2.064       .  S
O382        C383   1.281       .  A
C383        C594   1.481       .  S
O384       Cr393   1.993       .  S
O384        C392   1.259       .  A
O385       Cr393   1.951       .  S
O385        C386   1.262       .  A
C386        O387   1.275       .  A
C386        C586   1.479       .  S
O387       Cr394   2.044       .  S
O388       Cr394   1.945       .  S
O388        C389   1.252       .  A
C389        O390   1.276       .  A
C389        C654   1.480       .  S
O390       Cr395   2.046       .  S
O391       Cr395   2.017       .  S
O391        C392   1.260       .  A
C392        C646   1.482       .  S
Cr393       O396   1.752       .  S
Cr394       O396   1.779       .  S
Cr395       O396   1.777       .  S
O397       Cr415   2.012       .  S
O397        C405   1.272       .  A
O398       Cr415   1.953       .  S
O398        C399   1.255       .  A
C399        O400   1.272       .  A
C399        C613   1.477       .  S
O400       Cr416   2.040       .  S
O401       Cr416   2.023       .  S
O401        C402   1.262       .  A
C402        O403   1.250       .  A
C402        C561   1.472       .  S
O403       Cr417   1.976       .  S
O404       Cr417   1.965       .  S
O404        C405   1.262       .  A
C405        C565   1.463   1_556  S
O406       Cr415   2.006       .  S
O406        C414   1.260       .  A
O407       Cr415   2.000       .  S
O407        C408   1.263       .  A
C408        O409   1.267       .  A
C408        C794   1.486       .  S
O409       Cr416   1.990       .  S
O410       Cr416   2.065       .  S
O410        C411   1.282       .  A
C411        O412   1.261       .  A
C411        C573   1.485       .  S
O412       Cr417   1.950       .  S
O413       Cr417   1.978       .  S
O413        C414   1.253       .  A
C414        C569   1.471       .  S
Cr415       O418   1.770       .  S
Cr416       O418   1.774       .  S
Cr417       O418   1.760       .  S
O419       Cr437   1.986       .  S
O419        C427   1.258       .  A
O420       Cr437   2.005       .  S
O420        C421   1.266       .  A
C421        O422   1.271       .  A
C421        C578   1.482       .  S
O422       Cr438   2.014       .  S
O423       Cr438   2.033       .  S
O423        C424   1.268       .  A
C424        O425   1.260       .  A
C424        C562   1.485       .  S
O425       Cr439   1.981       .  S
O426       Cr439   1.992       .  S
O426        C427   1.262       .  A
C427        C550   1.465       .  S
O428       Cr437   2.027       .  S
O428        C436   1.268       .  A
O429       Cr437   1.978       .  S
O429        C430   1.260       .  A
C430        O431   1.266       .  A
C430        C742   1.474       .  S
O431       Cr438   2.006       .  S
O432       Cr438   2.011       .  S
O432        C433   1.266       .  A
C433        O434   1.263       .  A
C433        C557   1.480       .  S
O434       Cr439   1.997       .  S
O435       Cr439   1.969       .  S
O435        C436   1.257       .  A
C436        C553   1.477       .  S
Cr437       O440   1.775       .  S
Cr438       O440   1.776       .  S
Cr439       O440   1.764       .  S
O441       Cr459   2.031       .  S
O441        C449   1.272       .  A
O442       Cr459   1.988       .  S
O442        C443   1.263       .  A
C443        O444   1.264       .  A
C443        C590   1.477       .  S
O444       Cr460   2.009       .  S
O445       Cr460   2.020       .  S
O445        C446   1.267       .  A
C446        O447   1.263       .  A
C446        C541   1.491       .  S
O447       Cr461   2.005       .  S
O448       Cr461   1.957       .  S
O448        C449   1.256       .  A
C449        C549   1.467       .  S
O450       Cr459   2.001       .  S
O450        C458   1.259       .  A
O451       Cr459   2.015       .  S
O451        C452   1.269       .  A
C452        O453   1.268       .  A
C452        C774   1.485       .  S
O453       Cr460   1.986       .  S
O454       Cr460   2.030       .  S
O454        C455   1.271       .  A
C455        O456   1.255       .  A
C455        C546   1.466       .  S
O456       Cr461   1.964       .  S
O457       Cr461   1.998       .  S
O457        C458   1.260       .  A
C458        C574   1.474       .  S
Cr459       O462   1.771       .  S
Cr460       O462   1.770       .  S
Cr461       O462   1.756       .  S
O463       Cr481   1.989       .  S
O463        C471   1.257       .  A
O464       Cr481   1.974       .  S
O464        C465   1.260       .  A
C465        O466   1.268       .  A
C465        C598   1.472       .  S
O466       Cr482   2.022       .  S
O467       Cr482   2.016       .  S
O467        C468   1.268       .  A
C468        O469   1.263       .  A
C468        C533   1.485       .  S
O469       Cr483   1.988       .  S
O470       Cr483   1.998       .  S
O470        C471   1.261       .  A
C471        C538   1.467       .  S
O472       Cr481   1.976       .  S
O472        C480   1.258       .  A
O473       Cr481   1.988       .  S
O473        C474   1.259       .  A
C474        O475   1.266       .  A
C474        C758   1.479       .  S
O475       Cr482   2.006       .  S
O476       Cr482   2.012       .  S
O476        C477   1.267       .  A
C477        O478   1.266       .  A
C477        C570   1.480       .  S
O478       Cr483   1.977       .  S
O479       Cr483   2.008       .  S
O479        C480   1.267       .  A
C480        C545   1.462       .  S
Cr481       O484   1.770       .  S
Cr482       O484   1.779       .  S
Cr483       O484   1.771       .  S
O485       Cr503   1.988       .  S
O485        C493   1.254       .  A
O486       Cr503   1.962       .  S
O486        C487   1.263       .  A
C487        O488   1.275       .  A
C487        C581   1.473       .  S
O488       Cr504   2.042       .  S
O489       Cr504   2.019       .  S
O489        C490   1.267       .  A
C490        O491   1.259       .  A
C490        C542   1.483   1_554  S
O491       Cr505   1.981       .  S
O492       Cr505   2.005       .  S
O492        C493   1.260       .  A
C493        C537   1.471       .  S
O494       Cr503   1.986       .  S
O494        C502   1.264       .  A
O495       Cr503   1.981       .  S
O495        C496   1.253       .  A
C496        O497   1.267       .  A
C496        C730   1.488       .  S
O497       Cr504   2.025       .  S
O498       Cr504   2.026       .  S
O498        C499   1.271       .  A
C499        O500   1.262       .  A
C499        C554   1.486       .  S
O500       Cr505   1.968       .  S
O501       Cr505   2.004       .  S
O501        C502   1.268       .  A
C502        C529   1.463       .  S
Cr503       O506   1.772       .  S
Cr504       O506   1.785       .  S
Cr505       O506   1.773       .  S
O507       Cr525   1.993       .  S
O507        C515   1.264       .  A
O508       Cr525   2.001       .  S
O508        C509   1.260       .  A
C509        O510   1.261       .  A
C509        C630   1.480       .  S
O510       Cr526   2.008       .  S
O511       Cr526   2.037       .  S
O511        C512   1.270       .  A
C512        O513   1.257       .  A
C512        C534   1.481   1_554  S
O513       Cr527   1.965       .  S
O514       Cr527   1.983       .  S
O514        C515   1.265       .  A
C515        C566   1.463       .  S
O516       Cr525   2.030       .  S
O516        C524   1.265       .  A
O517       Cr525   1.968       .  S
O517        C518   1.267       .  A
C518        O519   1.274       .  A
C518        C722   1.478       .  S
O519       Cr526   2.021       .  S
O520       Cr526   1.985       .  S
O520        C521   1.258       .  A
C521        O522   1.260       .  A
C521        C530   1.467       .  S
O522       Cr527   1.980       .  S
O523       Cr527   1.982       .  S
O523        C524   1.258       .  A
C524        C558   1.486       .  S
Cr525       O528   1.778       .  S
Cr526       O528   1.786       .  S
Cr527       O528   1.760       .  S
C529        C530   1.341       .  D
C529        H531   1.087       .  S
C530        H532   1.087       .  S
C533        C534   1.348       .  D
C533        H535   1.086   1_556  S
C534        H536   1.090       .  S
C537        C538   1.336   1_554  D
C537        H539   1.088       .  S
C538        H540   1.087       .  S
C541        C542   1.350       .  D
C541        H543   1.086       .  S
C542        H544   1.088       .  S
C545        C546   1.338       .  D
C545        H547   1.087       .  S
C546        H548   1.088       .  S
C549        C550   1.338   1_556  D
C549        H551   1.089   1_556  S
C550        H552   1.086   1_554  S
C553        C554   1.348       .  D
C553        H555   1.087       .  S
C554        H556   1.086       .  S
C557        C558   1.351       .  D
C557        H559   1.086       .  S
C558        H560   1.088       .  S
C561        C562   1.344   1_556  D
C561        H563   1.087       .  S
C562        H564   1.086       .  S
C565        C566   1.343       .  D
C565        H567   1.089       .  S
C566        H568   1.086       .  S
C569        C570   1.340       .  D
C569        H571   1.087       .  S
C570        H572   1.085       .  S
C573        C574   1.348       .  D
C573        H575   1.087       .  S
C574        H576   1.088       .  S
C577        C578   1.351   1_655  D
C577        H579   1.086   1_655  S
C578        H580   1.087       .  S
C581        C582   1.349   1_565  D
C581        H583   1.088   1_565  S
C582        H584   1.086       .  S
C585        C586   1.344       .  D
C585        H587   1.087       .  S
C586        H588   1.086       .  S
C589        C590   1.339   1_655  D
C589        H591   1.087   1_655  S
C590        H592   1.087       .  S
C593        C594   1.341       .  D
C593        H595   1.086       .  S
C594        H596   1.088   1_554  S
C597        C598   1.340   1_545  D
C597        H599   1.087       .  S
C598        H600   1.087   1_565  S
C601        C602   1.344       .  D
C601        H603   1.086   1_556  S
C602        H604   1.090       .  S
C605        C606   1.335   1_554  D
C605        H607   1.087       .  S
C606        H608   1.087       .  S
C609        C610   1.343       .  D
C609        H611   1.086       .  S
C610        H612   1.088       .  S
C613        C614   1.345       .  D
C613        H615   1.089       .  S
C614        H616   1.087       .  S
C617        C618   1.340   1_556  D
C617        H619   1.088       .  S
C618        H620   1.088       .  S
C621        C622   1.350       .  D
C621        H623   1.089       .  S
C622        H624   1.086       .  S
C625        C626   1.351       .  D
C625        H627   1.087       .  S
C626        H628   1.086       .  S
C629        C630   1.350       .  D
C629        H631   1.086       .  S
C630        H632   1.088       .  S
C633        C634   1.328   1_554  D
C633        H635   1.087       .  S
C634        H636   1.087       .  S
C637        C638   1.343       .  D
C637        H639   1.089       .  S
C638        H640   1.086   1_554  S
C641        C642   1.349       .  D
C641        H643   1.088       .  S
C642        H644   1.086       .  S
C645        C646   1.356       .  D
C645        H647   1.085       .  S
C646        H648   1.088       .  S
C649        C650   1.339       .  D
C649        H651   1.086       .  S
C650        H652   1.087       .  S
C653        C654   1.337       .  D
C653        H655   1.087       .  S
C654        H656   1.088       .  S
C657        C658   1.345       .  D
C657        H659   1.086       .  S
C658        H660   1.086       .  S
C661        C662   1.345       .  D
C661        H663   1.088       .  S
C662        H664   1.087       .  S
C665        C666   1.334       .  D
C665        H667   1.087       .  S
C666        H668   1.088       .  S
C669        C670   1.347       .  D
C669        H671   1.087       .  S
C670        H672   1.086       .  S
C673        C674   1.343       .  D
C673        H675   1.085       .  S
C674        H676   1.086       .  S
C677        C678   1.340       .  D
C677        H679   1.086       .  S
C678        H680   1.090       .  S
C681        C682   1.348       .  D
C681        H683   1.087       .  S
C682        H684   1.085       .  S
C685        C686   1.348       .  D
C685        H687   1.086       .  S
C686        H688   1.086       .  S
C689        C690   1.352       .  D
C689        H691   1.087       .  S
C690        H692   1.087       .  S
C693        C694   1.345       .  D
C693        H695   1.087       .  S
C694        H696   1.087       .  S
C697        C698   1.345       .  D
C697        H699   1.087       .  S
C698        H700   1.087       .  S
C701        C702   1.333       .  D
C701        H703   1.087       .  S
C702        H704   1.088       .  S
C705        C706   1.349       .  D
C705        H707   1.086       .  S
C706        H708   1.087       .  S
C709        C710   1.331       .  D
C709        H711   1.088       .  S
C710        H712   1.087       .  S
C713        C714   1.339       .  D
C713        H715   1.089       .  S
C714        H716   1.086       .  S
C717        C718   1.349       .  D
C717        H719   1.086       .  S
C718        H720   1.087       .  S
C721        C722   1.341       .  D
C721        H723   1.087       .  S
C722        H724   1.087       .  S
C725        C726   1.339       .  D
C725        H727   1.086       .  S
C726        H728   1.088       .  S
C729        C730   1.340       .  D
C729        H731   1.087       .  S
C730        H732   1.087       .  S
C733        C734   1.347   1_565  D
C733        H735   1.086       .  S
C734        H736   1.087       .  S
C737        C738   1.336       .  D
C737        H739   1.088       .  S
C738        H740   1.087       .  S
C741        C742   1.344       .  D
C741        H743   1.086       .  S
C742        H744   1.087       .  S
C745        C746   1.344   1_455  D
C745        H747   1.086       .  S
C746        H748   1.090   1_655  S
C749        C750   1.331       .  D
C749        H751   1.087       .  S
C750        H752   1.090       .  S
C753        C754   1.343       .  D
C753        H755   1.086       .  S
C754        H756   1.086       .  S
C757        C758   1.337       .  D
C757        H759   1.085       .  S
C758        H760   1.086       .  S
C761        C762   1.343   1_565  D
C761        H763   1.087   1_565  S
C762        H764   1.087       .  S
C765        C766   1.339       .  D
C765        H767   1.087       .  S
C766        H768   1.088       .  S
C769        C770   1.350       .  D
C769        H771   1.087       .  S
C770        H772   1.086       .  S
C773        C774   1.344       .  D
C773        H775   1.087       .  S
C774        H776   1.086       .  S
C777        C778   1.343   1_655  D
C777        H779   1.086       .  S
C778        H780   1.088   1_455  S
C781        C782   1.338       .  D
C781        H783   1.086       .  S
C782        H784   1.087       .  S
C785        C786   1.346       .  D
C785        H787   1.088       .  S
C786        H788   1.086       .  S
C789        C790   1.350       .  D
C789        H791   1.086       .  S
C790        H792   1.085       .  S
C793        C794   1.341       .  D
C793        H795   1.087       .  S
C794        H796   1.086       .  S
C797        C798   1.355       .  D
C797        H799   1.086       .  S
C798        H800   1.088       .  S
C801        C802   1.350       .  D
C801        H803   1.086       .  S
C802        H804   1.087       .  S
C805        C806   1.340       .  D
C805        H807   1.086       .  S
C806        H808   1.087       .  S
C809        C810   1.346       .  D
C809        H811   1.087       .  S
C810        H812   1.088       .  S
C813        C814   1.334       .  D
C813        H815   1.088       .  S
C814        H816   1.088       .  S
