geometry optimzed in LAMMPS
_audit_creation_date              2020-12-01 
_audit_creation_method            'lammps2cif' 
_symmetry_space_group_name_H-M    'P1' 
_symmetry_Int_Tables_number       1 
_symmetry_cell_setting            triclinic 
loop_ 
_symmetry_equiv_pos_as_xyz 
  x,y,z 
_cell_length_a                    47.97042392 
_cell_length_b                    48.16759385617546 
_cell_length_c                    65.88353171535135 
_cell_angle_alpha                 89.8425910234631 
_cell_angle_beta                  90.00443133182321 
_cell_angle_gamma                 119.52714508062955 
loop_ 
_atom_site_label 
_atom_site_type_symbol 
_atom_site_fract_x 
_atom_site_fract_y 
_atom_site_fract_z 
_atom_site_charge 
Fe1        Fe  0.44673010  0.59767147  0.60370308     1.65800
Fe2        Fe  0.50865883  0.58217131  0.60314969     1.73200
Fe3        Fe  0.48886673  0.60890652  0.56087447     1.54400
O4          O  0.44292684  0.57218843  0.55374099    -0.81400
O5          O  0.54969028  0.61860198  0.58965869    -0.79700
O6          O  0.41663073  0.58008812  0.57911302    -0.83900
O7          O  0.46114319  0.64426407  0.59507740    -0.78800
O8          O  0.50679152  0.57896136  0.55310717    -0.80500
O9          O  0.51775368  0.61278066  0.62750913    -0.83300
C10         C  0.46307784  0.65312882  0.57674783     0.97500
C11         C  0.41706085  0.56634937  0.56279235     1.04900
O12         O  0.48158276  0.59637523  0.58945586    -1.12300
O13         O  0.47081638  0.54509013  0.61888041    -0.74700
O14         O  0.42843376  0.55144189  0.61318773    -0.78200
O15         O  0.47084994  0.64039066  0.56264101    -0.78900
C16         C  0.44104538  0.53575782  0.62031126     0.96400
O17         O  0.47208838  0.61415896  0.63035669    -0.76800
O18         O  0.50189491  0.54955720  0.58021363    -0.82000
C19         C  0.55579560  0.64345418  0.57938476     0.99000
C20         C  0.50528512  0.55433074  0.56118360     1.04900
O21         O  0.53491908  0.64543919  0.56829517    -0.77700
C22         C  0.49921001  0.61994544  0.63708791     1.03200
Fe23       Fe  0.87571945  0.82958265  0.59380950     1.65800
Fe24       Fe  0.82398504  0.75001645  0.59179709     1.73200
Fe25       Fe  0.83337808  0.79086020  0.63461736     1.54400
O26         O  0.88092322  0.80293713  0.64172637    -0.81400
O27         O  0.78048598  0.73753190  0.60533530    -0.79700
O28         O  0.90315062  0.84358388  0.61988610    -0.83900
O29         O  0.85157751  0.85316922  0.60276556    -0.78800
O30         O  0.81897636  0.74371875  0.64034403    -0.80500
O31         O  0.81066605  0.76970482  0.56834382    -0.83300
C32         C  0.84896939  0.85829574  0.62131500     0.97500
C33         C  0.90562636  0.82582194  0.63319445     1.04900
O34         O  0.84432632  0.79008958  0.60640676    -1.12300
O35         O  0.86556428  0.75910812  0.57658533    -0.74700
O36         O  0.90224102  0.80931313  0.58403237    -0.78200
O37         O  0.84629688  0.83870093  0.63501003    -0.78900
C38         C  0.89405782  0.78240786  0.57606206     0.96400
O39         O  0.85185678  0.81946320  0.56651143    -0.76800
O40         O  0.83519276  0.72663411  0.61420621    -0.82000
C41         C  0.76963911  0.75461263  0.61296107     0.99000
C42         C  0.82670500  0.72447040  0.63263804     1.04900
O43         O  0.78642733  0.77793052  0.62501873    -0.77700
C44         C  0.82615012  0.79657366  0.55955625     1.03200
Fe45       Fe  0.77812584  0.46622325  0.76244834     1.65800
Fe46       Fe  0.82634802  0.54667650  0.76083332     1.73200
Fe47       Fe  0.81659640  0.50199086  0.71959209     1.54400
O48         O  0.80656483  0.45499132  0.72092131    -0.81400
O49         O  0.81206049  0.56615336  0.73768719    -0.79700
O50         O  0.80183267  0.44216235  0.75340204    -0.83900
O51         O  0.74766629  0.44949364  0.73776731    -0.78800
O52         O  0.86468197  0.51891263  0.72768436    -0.80500
O53         O  0.78534365  0.53770310  0.77666582    -0.83300
C54         C  0.74454903  0.46411140  0.72258116     0.97500
C55         C  0.80380481  0.43589758  0.73499706     1.04900
O56         O  0.80711562  0.50497494  0.74795292    -1.12300
O57         O  0.84240889  0.53121966  0.78524453    -0.74700
O58         O  0.80541440  0.47971824  0.78852685    -0.78200
O59         O  0.76844544  0.48623222  0.71305685    -0.78900
C60         C  0.82988731  0.50482594  0.79476118     0.96400
O61         O  0.75116198  0.48573322  0.77282506    -0.76800
O62         O  0.86949561  0.55985022  0.74651601    -0.82000
C63         C  0.81915369  0.56687119  0.71909775     0.99000
C64         C  0.88159375  0.54481982  0.73756627     1.04900
O65         O  0.82735164  0.54770855  0.71179416    -0.77700
C66         C  0.75793659  0.51326769  0.77901345     1.03200
Fe67       Fe  0.20136122  0.67804038  0.75328364     1.65800
Fe68       Fe  0.15167976  0.70933795  0.75269440     1.73200
Fe69       Fe  0.16029653  0.67481195  0.79493590     1.54400
O70         O  0.17006332  0.63699430  0.79381389    -0.81400
O71         O  0.16444884  0.74325150  0.77554475    -0.79700
O72         O  0.17614989  0.63038667  0.76125563    -0.83900
O73         O  0.22958786  0.68900584  0.77904527    -0.78800
O74         O  0.11252993  0.64458518  0.78624737    -0.80500
O75         O  0.19340098  0.74039871  0.73724388    -0.83300
C76         C  0.23239958  0.70756327  0.79353981     0.97500
C77         C  0.17307742  0.62105196  0.77952085     1.04900
O78         O  0.17093942  0.68733565  0.76668218    -1.12300
O79         O  0.13706309  0.67769363  0.72848881    -0.74700
O80         O  0.17731536  0.66709144  0.72598817    -0.78200
O81         O  0.20810429  0.70645884  0.80226354    -0.78900
C82         C  0.15240640  0.66654862  0.71897994     0.96400
O83         O  0.22894217  0.72451114  0.74424577    -0.76800
O84         O  0.10792439  0.68004782  0.76636683    -0.82000
C85         C  0.15731666  0.73748186  0.79422234     0.99000
C86         C  0.09572584  0.65343904  0.77579081     1.04900
O87         O  0.14966066  0.71056348  0.80202432    -0.77700
C88         C  0.22147689  0.74401203  0.73637933     1.03200
Fe89       Fe  0.11785671  0.94216252  0.93326059     1.65800
Fe90       Fe  0.17140337  0.91583373  0.92780322     1.73200
Fe91       Fe  0.15264176  0.94804699  0.88820396     1.54400
O92         O  0.10445081  0.91510602  0.88304386    -0.81400
O93         O  0.21215343  0.94707431  0.91152231    -0.79700
O94         O  0.08414636  0.92684069  0.91027899    -0.83900
O95         O  0.13681299  0.98949461  0.92461842    -0.78800
O96         O  0.16477340  0.91417632  0.87855208    -0.80500
O97         O  0.18876174  0.94793015  0.95163521    -0.83300
C98         C  0.13674347  0.99828669  0.90649621     0.97500
C99         C  0.08078054  0.91182119  0.89376440     1.04900
O100        O  0.14722087  0.93522381  0.91663883    -1.12300
O101        O  0.13385338  0.88287337  0.94595849    -0.74700
O102        O  0.09538158  0.89591849  0.94344591    -0.78200
O103        O  0.14001479  0.98348204  0.89163784    -0.78900
C104        C  0.10555445  0.87752469  0.94945904     0.96400
O105        O  0.14818791  0.95706258  0.95804918    -0.76800
O106        O  0.15608782  0.88201887  0.90480865    -0.82000
C107        C  0.22060222  0.97418048  0.90349665     0.99000
C108        C  0.15973945  0.88769933  0.88586714     1.04900
O109        O  0.20072015  0.98068067  0.89465223    -0.77700
C110        C  0.17503174  0.95939739  0.96250858     1.03200
Fe111      Fe  0.53732710  0.16260130  0.92366045     1.65800
Fe112      Fe  0.49168374  0.08215844  0.92466643     1.73200
Fe113      Fe  0.49650668  0.12562503  0.96561474     1.54400
O114        O  0.54482404  0.14386462  0.97339426    -0.81400
O115        O  0.44729874  0.06611107  0.93801650    -0.79700
O116        O  0.56409865  0.18181362  0.94963154    -0.83900
O117        O  0.50948527  0.18323631  0.93028886    -0.78800
O118        O  0.48845029  0.08053595  0.97387594    -0.80500
O119        O  0.47528372  0.09658956  0.89999910    -0.83300
C120        C  0.50643201  0.19027475  0.94836731     0.97500
C121        C  0.56829130  0.16706700  0.96425782     1.04900
O122        O  0.50837417  0.12338520  0.93770557    -1.12300
O123        O  0.53421883  0.09424255  0.90948324    -0.74700
O124        O  0.56771242  0.14565339  0.91603824    -0.78200
O125        O  0.50388114  0.17213006  0.96311560    -0.78900
C126        C  0.56166737  0.11910089  0.90841818     0.96400
O127        O  0.51404628  0.14720152  0.89618530    -0.76800
O128        O  0.50643914  0.06395862  0.94827580    -0.82000
C129        C  0.43351932  0.08081129  0.94514183     0.99000
C130        C  0.49819239  0.06238665  0.96673140     1.04900
O131        O  0.44846708  0.10609617  0.95598343    -0.77700
C132        C  0.48967375  0.12219353  0.88975291     1.03200
Fe133      Fe  0.10800069  0.12825218  0.42304311     1.65800
Fe134      Fe  0.15955045  0.20773827  0.42614609     1.73200
Fe135      Fe  0.15203572  0.16780994  0.38284322     1.54400
O136        O  0.14112745  0.11999768  0.38291637    -0.81400
O137        O  0.14907368  0.23151659  0.40377938    -0.79700
O138        O  0.13318265  0.10536552  0.41519495    -0.83900
O139        O  0.08167190  0.11365428  0.39650069    -0.78800
O140        O  0.19962395  0.18290550  0.39239932    -0.80500
O141        O  0.11707571  0.19776720  0.44060388    -0.83300
C142        C  0.07951124  0.13121332  0.38292446     0.97500
C143        C  0.13739145  0.10027303  0.39691501     1.04900
O144        O  0.14010758  0.16805402  0.41097988    -1.12300
O145        O  0.17166744  0.18768714  0.45000396    -0.74700
O146        O  0.12976091  0.13835347  0.45094103    -0.78200
O147        O  0.10445866  0.15436269  0.37491100    -0.78900
C148        C  0.15469793  0.16104335  0.45877456     0.96400
O149        O  0.08073917  0.14801443  0.43194072    -0.76800
O150        O  0.20408837  0.22132595  0.41358057    -0.82000
C151        C  0.15634442  0.23365217  0.38511648     0.99000
C152        C  0.21633138  0.20704258  0.40390048     1.04900
O153        O  0.16398776  0.21466135  0.37680323    -0.77700
C154        C  0.08860761  0.17432823  0.44061131     1.03200
Fe155      Fe  0.52381236  0.32831415  0.42640226     1.65800
Fe156      Fe  0.48435480  0.37066464  0.42962510     1.73200
Fe157      Fe  0.49155887  0.33274455  0.47023797     1.54400
O158        O  0.49959109  0.29435972  0.47010372    -0.81400
O159        O  0.50248832  0.40405200  0.45313305    -0.79700
O160        O  0.49966237  0.28248356  0.43805163    -0.83900
O161        O  0.55830875  0.34440467  0.44914156    -0.78800
O162        O  0.44300565  0.30415240  0.46180135    -0.80500
O163        O  0.52583601  0.39957442  0.41298630    -0.83300
C164        C  0.56334372  0.36242204  0.46453834     0.97500
C165        C  0.50030987  0.27631298  0.45656829     1.04900
O166        O  0.50029632  0.34422751  0.44173764    -1.12300
O167        O  0.46495317  0.34018667  0.40497942    -0.74700
O168        O  0.49090617  0.31224210  0.40317661    -0.78200
O169        O  0.54076949  0.36213018  0.47522914    -0.78900
C170        C  0.46999220  0.31910212  0.39687461     0.96400
O171        O  0.55114749  0.37129441  0.41211661    -0.76800
O172        O  0.44092650  0.34342009  0.44471926    -0.82000
C173        C  0.49517398  0.39786912  0.47174987     0.99000
C174        C  0.42742865  0.31478407  0.45151312     1.04900
O175        O  0.48336085  0.36965886  0.47844383    -0.77700
C176        C  0.54916075  0.39581184  0.40747803     1.03200
Fe177      Fe  0.76937670  0.27088967  0.26428970     1.65800
Fe178      Fe  0.82276480  0.24544155  0.26551055     1.73200
Fe179      Fe  0.81560336  0.28313382  0.22329399     1.54400
O180        O  0.76654843  0.26168983  0.21448292    -0.81400
O181        O  0.86716765  0.28365381  0.26024671    -0.79700
O182        O  0.73779160  0.24189422  0.24317467    -0.83900
O183        O  0.77432021  0.30970215  0.24780935    -0.78800
O184        O  0.81550467  0.24261338  0.21339718    -0.80500
O185        O  0.82290238  0.26831797  0.29264842    -0.83300
C186        C  0.79485553  0.32968175  0.23572542     0.97500
C187        C  0.73995192  0.24474915  0.22399619     1.04900
O188        O  0.80278120  0.26634866  0.25074700    -1.12300
O189        O  0.77946042  0.20563380  0.27252778    -0.74700
O190        O  0.75510195  0.23187484  0.28292708    -0.78200
O191        O  0.81772304  0.32640360  0.22905143    -0.78900
C192        C  0.75687577  0.20658630  0.28181191     0.96400
O193        O  0.80201469  0.29987655  0.28552040    -0.76800
O194        O  0.82546588  0.22053611  0.24016019    -0.82000
C195        C  0.88001714  0.30464884  0.24648508     0.99000
C196        C  0.82083682  0.22160436  0.22120417     1.04900
O197        O  0.86482240  0.30584402  0.23081384    -0.77700
C198        C  0.81847555  0.29179655  0.29670350     1.03200
Fe199      Fe  0.21308285  0.48597512  0.25821703     1.65800
Fe200      Fe  0.15239731  0.41053892  0.25530833     1.73200
Fe201      Fe  0.16209870  0.45554174  0.29787532     1.54400
O202        O  0.21057459  0.48074303  0.30800806    -0.81400
O203        O  0.10953415  0.40824365  0.26087530    -0.79700
O204        O  0.24054321  0.48411649  0.28103186    -0.83900
O205        O  0.20886760  0.52103770  0.27362647    -0.78800
O206        O  0.15913873  0.41343073  0.30780753    -0.80500
O207        O  0.15416165  0.43508927  0.22888480    -0.83300
C208        C  0.18830758  0.52296696  0.28463947     0.97500
C209        C  0.23755355  0.48789812  0.29974364     1.04900
O210        O  0.17551966  0.45041657  0.27052303    -1.12300
O211        O  0.19260121  0.40804635  0.24699556    -0.74700
O212        O  0.22642633  0.45908256  0.24104778    -0.78200
O213        O  0.16360871  0.49840085  0.29113770    -0.78900
C214        C  0.21824940  0.42998914  0.23940216     0.96400
O215        O  0.18595999  0.48752691  0.23458160    -0.76800
O216        O  0.14847718  0.38248241  0.28041175    -0.82000
C217        C  0.09715839  0.41659156  0.27481027     0.99000
C218        C  0.15298195  0.38729059  0.29943161     1.04900
O219        O  0.11281106  0.43214151  0.29042148    -0.77700
C220        C  0.16574812  0.46432091  0.22389896     1.03200
Fe221      Fe  0.86304783  0.01327393  0.08449090     1.65800
Fe222      Fe  0.81482977  0.04591698  0.08925674     1.73200
Fe223      Fe  0.82850997  0.01019343  0.12893345     1.54400
O224        O  0.83763453  0.97256535  0.12554929    -0.81400
O225        O  0.83146708  0.07954894  0.11241559    -0.79700
O226        O  0.83878805  0.96545115  0.09253196    -0.83900
O227        O  0.89461189  0.02352353  0.10825852    -0.78800
O228        O  0.77986377  0.97974073  0.12132177    -0.80500
O229        O  0.85408596  0.07668419  0.07161153    -0.83300
C230        C  0.90017169  0.04190455  0.12333960     0.97500
C231        C  0.83834556  0.95638686  0.11065499     1.04900
O232        O  0.83566845  0.02345545  0.10066846    -1.12300
O233        O  0.79571971  0.01390651  0.06517429    -0.74700
O234        O  0.83474479  0.00242581  0.05913260    -0.78200
O235        O  0.87761282  0.04121466  0.13413876    -0.78900
C236        C  0.80890921  0.00187191  0.05424927     0.96400
O237        O  0.88972179  0.05989768  0.07514540    -0.76800
O238        O  0.77397476  0.01770678  0.10582886    -0.82000
C239        C  0.82647207  0.07335191  0.13126537     0.99000
C240        C  0.76276394  0.98890425  0.11145088     1.04900
O241        O  0.81947715  0.04617602  0.13841927    -0.77700
C242        C  0.88182587  0.07999449  0.06889269     1.03200
Fe243      Fe  0.44599771  0.80901926  0.10004924     1.65800
Fe244      Fe  0.50257132  0.88660888  0.09666416     1.73200
Fe245      Fe  0.48313479  0.83834762  0.05574550     1.54400
O246        O  0.47126114  0.79047396  0.05936211    -0.81400
O247        O  0.48934555  0.90850408  0.07452673    -0.79700
O248        O  0.46596201  0.78091228  0.09253434    -0.83900
O249        O  0.41428975  0.79067803  0.07618772    -0.78800
O250        O  0.53137105  0.85274970  0.06155955    -0.80500
O251        O  0.46506525  0.88204214  0.11491633    -0.83300
C252        C  0.41105125  0.80350108  0.06018783     0.97500
C253        C  0.46790491  0.77265344  0.07452136     1.04900
O254        O  0.47739199  0.84474035  0.08424805    -1.12300
O255        O  0.51815045  0.86843709  0.11976164    -0.74700
O256        O  0.47306716  0.82319332  0.12642768    -0.78200
O257        O  0.43497809  0.82435448  0.05008988    -0.78900
C258        C  0.50096401  0.84503607  0.13130015     0.96400
O259        O  0.42348749  0.83413977  0.10808550    -0.76800
O260        O  0.54320072  0.89570475  0.08050246    -0.82000
C261        C  0.49254230  0.90719124  0.05547054     0.99000
C262        C  0.55151006  0.87831085  0.07059615     1.04900
O263        O  0.49509867  0.88470127  0.04722480    -0.77700
C264        C  0.43559538  0.86123834  0.11648370     1.03200
Fe265      Fe  0.62854316  0.15813112  0.42588885     1.65800
Fe266      Fe  0.59226598  0.07775778  0.42576286     1.73200
Fe267      Fe  0.63196341  0.11903905  0.46665077     1.54400
O268        O  0.67007318  0.16584872  0.46558365    -0.81400
O269        O  0.55970908  0.06036082  0.44955380    -0.79700
O270        O  0.67621563  0.17700622  0.43291806    -0.83900
O271        O  0.61928128  0.17542837  0.45247034    -0.78800
O272        O  0.66072033  0.10085765  0.45529460    -0.80500
O273        O  0.56278462  0.09142880  0.41043183    -0.83300
C274        C  0.60036892  0.15940171  0.46687759     0.97500
C275        C  0.68584819  0.18398791  0.45099732     1.04900
O276        O  0.61741926  0.11831822  0.43910233    -1.12300
O277        O  0.62317960  0.09198723  0.40126980    -0.74700
O278        O  0.63750297  0.14363138  0.39825755    -0.78200
O279        O  0.60139445  0.13606471  0.47542766    -0.78900
C280        C  0.63608958  0.11821606  0.39158125     0.96400
O281        O  0.58239730  0.14296157  0.41758852    -0.76800
O282        O  0.61980847  0.06050137  0.43922217    -0.82000
C283        C  0.56749321  0.05664873  0.46735364     0.99000
C284        C  0.64897407  0.07496542  0.44498729     1.04900
O285        O  0.59599020  0.07316963  0.47376884    -0.77700
C286        C  0.56165505  0.11725363  0.40943569     1.03200
Fe287      Fe  0.83405228  0.96143231  0.43282373     1.65800
Fe288      Fe  0.75272263  0.92011039  0.42735353     1.73200
Fe289      Fe  0.80196765  0.94954366  0.38655449     1.54400
O290        O  0.84767317  0.98864575  0.38658817    -0.81400
O291        O  0.73584892  0.88350714  0.40611108    -0.79700
O292        O  0.85823162  0.00524183  0.41811481    -0.83900
O293        O  0.85381467  0.94085295  0.41440168    -0.78800
O294        O  0.78074483  0.97858598  0.38855506    -0.80500
O295        O  0.76280203  0.89167575  0.44616740    -0.83300
C296        C  0.84316657  0.92100938  0.39974638     0.97500
C297        C  0.86547360  0.00895005  0.39950435     1.04900
O298        O  0.79609860  0.94358378  0.41582714    -1.12300
O299        O  0.76314192  0.95293592  0.45066500    -0.74700
O300        O  0.81649600  0.98213792  0.45259818    -0.78200
O301        O  0.82241877  0.91978203  0.38693818    -0.78900
C302        C  0.78860950  0.97528034  0.45839549     0.96400
O303        O  0.81584400  0.92043090  0.44979836    -0.76800
O304        O  0.73960877  0.94710885  0.40934523    -0.82000
C305        C  0.73764596  0.88632631  0.38699267     0.99000
C306        C  0.75460127  0.97163855  0.39796272     1.04900
O307        O  0.75850951  0.91154395  0.37847436    -0.77700
C308        C  0.78910428  0.89577750  0.45333934     1.03200
Fe309      Fe  0.17000131  0.61537041  0.09394872     1.65800
Fe310      Fe  0.08934527  0.58164775  0.09385367     1.73200
Fe311      Fe  0.13227366  0.61690978  0.05202767     1.54400
O312        O  0.17924230  0.65492483  0.05305640    -0.81400
O313        O  0.07074573  0.54750993  0.07116236    -0.79700
O314        O  0.19026104  0.66277679  0.08576538    -0.83900
O315        O  0.18820683  0.60508350  0.06833063    -0.78800
O316        O  0.11403141  0.64690781  0.06111695    -0.80500
O317        O  0.10164489  0.55218667  0.11023264    -0.83300
C318        C  0.17253714  0.58488166  0.05459619     0.97500
C319        C  0.19699271  0.67172410  0.06747338     1.04900
O320        O  0.13044184  0.60461585  0.08025418    -1.12300
O321        O  0.10441405  0.61404671  0.11760933    -0.74700
O322        O  0.15544390  0.62583965  0.12097372    -0.78200
O323        O  0.14932215  0.58524130  0.04524424    -0.78900
C324        C  0.13058010  0.62605118  0.12741238     0.96400
O325        O  0.15304495  0.56919245  0.10300962    -0.76800
O326        O  0.07330130  0.60913129  0.07910217    -0.82000
C327        C  0.06855836  0.55367331  0.05267375     0.99000
C328        C  0.08839294  0.63723629  0.07172098     1.04900
O329        O  0.08642474  0.58104241  0.04510222    -0.77700
C330        C  0.12671899  0.54953358  0.11125770     1.03200
Fe331      Fe  0.96236911  0.82280283  0.08626018     1.65800
Fe332      Fe  0.93080411  0.74230147  0.09105828     1.73200
Fe333      Fe  0.96214019  0.79082413  0.13152746     1.54400
O334        O  0.99977123  0.83710449  0.12910956    -0.81400
O335        O  0.89605067  0.72316794  0.11379862    -0.79700
O336        O  0.00934354  0.84737628  0.09637693    -0.83900
O337        O  0.94723523  0.84217897  0.10869034    -0.78800
O338        O  0.99342450  0.77259220  0.12633894    -0.80500
O339        O  0.89920042  0.74985819  0.07376676    -0.83300
C340        C  0.92920818  0.82978753  0.12404074     0.97500
C341        C  0.01704892  0.85460015  0.11477630     1.04900
O342        O  0.95164571  0.78516355  0.10271143    -1.12300
O343        O  0.96304019  0.75614905  0.06698205    -0.74700
O344        O  0.97793547  0.80745948  0.06189466    -0.78200
O345        O  0.93031406  0.80851916  0.13516176    -0.78900
C346        C  0.97762214  0.78193419  0.05688001     0.96400
O347        O  0.91670653  0.80229680  0.07465402    -0.76800
O348        O  0.96079043  0.73079943  0.10691980    -0.82000
C349        C  0.90038084  0.72494472  0.13287711     0.99000
C350        C  0.98671961  0.74687777  0.11676785     1.04900
O351        O  0.92606976  0.74633127  0.14074957    -0.77700
C352        C  0.89625242  0.77403360  0.06964811     1.03200
Fe353      Fe  0.70904244  0.47483009  0.26332053     1.65800
Fe354      Fe  0.72306251  0.55036796  0.26727203     1.73200
Fe355      Fe  0.68988947  0.50710946  0.22390476     1.54400
O356        O  0.71445773  0.48314497  0.21358521    -0.81400
O357        O  0.68307574  0.55333864  0.26126096    -0.79700
O358        O  0.73944142  0.47801745  0.24090847    -0.83900
O359        O  0.67077714  0.44009815  0.24679356    -0.78800
O360        O  0.72878832  0.54960369  0.21493308    -0.80500
O361        O  0.69856740  0.52430549  0.29325999    -0.83300
C362        C  0.64894660  0.43881920  0.23533458     0.97500
C363        C  0.73419036  0.47592428  0.22199909     1.04900
O364        O  0.70719944  0.51100101  0.25148288    -1.12300
O365        O  0.76502706  0.55224306  0.27619398    -0.74700
O366        O  0.74823159  0.50103155  0.28148682    -0.78200
O367        O  0.64893212  0.46381394  0.22941104    -0.78900
C368        C  0.76855151  0.53012177  0.28382548     0.96400
O369        O  0.67939360  0.47219171  0.28667065    -0.76800
O370        O  0.74885767  0.57976040  0.24259058    -0.82000
C371        C  0.66249522  0.54487441  0.24731670     0.99000
C372        C  0.74889224  0.57536755  0.22347353     1.04900
O373        O  0.66302829  0.52959267  0.23163707    -0.77700
C374        C  0.68131875  0.49471719  0.29776237     1.03200
Fe375      Fe  0.48007360  0.69722746  0.26129675     1.65800
Fe376      Fe  0.55676229  0.71417116  0.25734619     1.73200
Fe377      Fe  0.51249477  0.67727527  0.29999928     1.54400
O378        O  0.48716380  0.70033767  0.31094890    -0.81400
O379        O  0.56078523  0.67442015  0.26222299    -0.79700
O380        O  0.48196805  0.72601516  0.28404469    -0.83900
O381        O  0.44537721  0.65792772  0.27709503    -0.78800
O382        O  0.55429561  0.71564047  0.30984148    -0.80500
O383        O  0.53177459  0.69182560  0.23088320    -0.83300
C384        C  0.44468126  0.63565012  0.28769178     0.97500
C385        C  0.47986246  0.72022935  0.30286572     1.04900
O386        O  0.51678639  0.69616718  0.27293273    -1.12300
O387        O  0.55750193  0.75637189  0.24984705    -0.74700
O388        O  0.50585571  0.73720527  0.24396239    -0.78200
O389        O  0.47007899  0.63615603  0.29338364    -0.78900
C390        C  0.53460166  0.75911295  0.24252330     0.96400
O391        O  0.47906005  0.66944872  0.23765481    -0.76800
O392        O  0.58514457  0.73761274  0.28250693    -0.82000
C393        C  0.55281870  0.65337890  0.27589900     0.99000
C394        C  0.58041321  0.73593553  0.30162134     1.04900
O395        O  0.53670371  0.65240670  0.29159424    -0.77700
C396        C  0.50233975  0.67378096  0.22629082     1.03200
Fe397      Fe  0.02151264  0.13663595  0.93056712     1.65800
Fe398      Fe  0.05475355  0.21691973  0.92793168     1.73200
Fe399      Fe  0.01872145  0.17113827  0.88732549     1.54400
O400        O  0.04981836  0.15286740  0.88121242    -0.81400
O401        O  0.02640997  0.23133387  0.91283756    -0.79700
O402        O  0.03009890  0.11607258  0.90567560    -0.83900
O403        O  0.97347607  0.11548466  0.92315800    -0.78800
O404        O  0.05493429  0.21650372  0.87872939    -0.80500
O405        O  0.02316108  0.20310904  0.95230428    -0.83300
C406        C  0.96408492  0.10759755  0.90502830     0.97500
C407        C  0.04943620  0.12973385  0.89113077     1.04900
O408        O  0.03175534  0.17502765  0.91552676    -1.12300
O409        O  0.08532668  0.20638696  0.94421813    -0.74700
O410        O  0.06856967  0.15476147  0.93870261    -0.78200
O411        O  0.98039779  0.12461309  0.89013012    -0.78900
C412        C  0.08869968  0.18190440  0.94567491     0.96400
O413        O  0.01226990  0.15287868  0.95723918    -0.76800
O414        O  0.08837349  0.23479496  0.90477684    -0.82000
C415        C  0.99791166  0.21522287  0.90622797     0.99000
C416        C  0.08207828  0.23592743  0.88619438     1.04900
O417        O  0.98863882  0.18972579  0.89575314    -0.77700
C418        C  0.01193613  0.17783904  0.96295768     1.03200
Fe419      Fe  0.81512320  0.35130646  0.92244208     1.65800
Fe420      Fe  0.89419572  0.37489618  0.92306765     1.73200
Fe421      Fe  0.84920012  0.34612227  0.96526566     1.54400
O422        O  0.83603851  0.38078912  0.97119893    -0.81400
O423        O  0.90482391  0.34335283  0.93816704    -0.79700
O424        O  0.79825476  0.36431433  0.94741007    -0.83900
O425        O  0.78946951  0.30369254  0.93091278    -0.78800
O426        O  0.89602051  0.37924291  0.97234319    -0.80500
O427        O  0.87546488  0.34193528  0.89988593    -0.83300
C428        C  0.78267257  0.29506913  0.94930724     0.97500
C429        C  0.81369844  0.38274348  0.96192997     1.04900
O430        O  0.85297601  0.35737491  0.93668791    -1.12300
O431        O  0.88728929  0.40751800  0.90603011    -0.74700
O432        O  0.83787004  0.39819636  0.91323366    -0.78200
O433        O  0.80119974  0.31105237  0.96367542    -0.78900
C434        C  0.86500431  0.41456034  0.90479765     0.96400
O435        O  0.82776089  0.33856961  0.89559030    -0.76800
O436        O  0.91670728  0.40964670  0.94504505    -0.82000
C437        C  0.88804516  0.31770765  0.94820030     0.99000
C438        C  0.91691127  0.40477370  0.96395869     1.04900
O439        O  0.86313532  0.31237352  0.95834305    -0.77700
C440        C  0.85039041  0.33418203  0.88956220     1.03200
Fe441      Fe  0.30026516  0.49053446  0.75710051     1.65800
Fe442      Fe  0.27205599  0.41088267  0.76232626     1.73200
Fe443      Fe  0.30077127  0.45974307  0.80246787     1.54400
O444        O  0.33644474  0.50712507  0.80013595    -0.81400
O445        O  0.23593619  0.39235211  0.78398702    -0.79700
O446        O  0.34703602  0.51675978  0.76743740    -0.83900
O447        O  0.28382708  0.50908561  0.77942619    -0.78800
O448        O  0.33437817  0.44439408  0.79727401    -0.80500
O449        O  0.24117550  0.41711477  0.74306734    -0.83300
C450        C  0.26535659  0.49610496  0.79455476     0.97500
C451        C  0.35360825  0.52494638  0.78584409     1.04900
O452        O  0.29092738  0.45367472  0.77370072    -1.12300
O453        O  0.30618495  0.42544226  0.73972182    -0.74700
O454        O  0.31649194  0.47511896  0.73284411    -0.78200
O455        O  0.26682239  0.47500943  0.80571084    -0.78900
C456        C  0.31854685  0.45040344  0.72880175     0.96400
O457        O  0.25470497  0.46846810  0.74553914    -0.76800
O458        O  0.30164275  0.40028801  0.77988875    -0.82000
C459        C  0.24024397  0.39315168  0.80300447     0.99000
C460        C  0.32852371  0.41851571  0.78823738     1.04900
O461        O  0.26624145  0.41386729  0.81106799    -0.77700
C462        C  0.23652889  0.44039511  0.73919472     1.03200
Fe463      Fe  0.50381526  0.27573412  0.76154606     1.65800
Fe464      Fe  0.42311147  0.24367316  0.76240228     1.73200
Fe465      Fe  0.46522940  0.28105070  0.72076341     1.54400
O466        O  0.51238518  0.31832698  0.72197550    -0.81400
O467        O  0.40323439  0.21113731  0.73874026    -0.79700
O468        O  0.52576700  0.32380052  0.75440297    -0.83900
O469        O  0.52091205  0.26607069  0.73519281    -0.78800
O470        O  0.44801736  0.31122843  0.73167429    -0.80500
O471        O  0.43439025  0.21207039  0.77682908    -0.83300
C472        C  0.50556934  0.24858884  0.72023772     0.97500
C473        C  0.53150704  0.33368493  0.73622559     1.04900
O474        O  0.46404733  0.26679044  0.74852705    -1.12300
O475        O  0.43956703  0.27411730  0.78728899    -0.74700
O476        O  0.49062469  0.28546405  0.78932016    -0.78200
O477        O  0.48199249  0.24983783  0.71200266    -0.78900
C478        C  0.46611642  0.28543070  0.79666046     0.96400
O479        O  0.48575819  0.22880601  0.76968661    -0.76800
O480        O  0.40778027  0.27324375  0.74969778    -0.82000
C481        C  0.40100518  0.21805012  0.72041069     0.99000
C482        C  0.42344495  0.30192222  0.74327483     1.04900
O483        O  0.41891029  0.24584721  0.71337697    -0.77700
C484        C  0.45906654  0.20874295  0.77740371     1.03200
Fe485      Fe  0.14688219  0.00200318  0.58662253     1.65800
Fe486      Fe  0.22840712  0.04200953  0.59012800     1.73200
Fe487      Fe  0.18227829  0.00477861  0.63068488     1.54400
O488        O  0.15984721  0.03221905  0.63609691    -0.81400
O489        O  0.24481563  0.01488174  0.60511401    -0.79700
O490        O  0.12508991  0.01224144  0.61020749    -0.83900
O491        O  0.12701580  0.95488726  0.59608556    -0.78800
O492        O  0.22647268  0.04265157  0.63939878    -0.80500
O493        O  0.21761899  0.01175737  0.56554485    -0.83300
C494        C  0.11959033  0.94712915  0.61449128     0.97500
C495        C  0.13501653  0.02852530  0.62641922     1.04900
O496        O  0.18595446  0.01656068  0.60220541    -1.12300
O497        O  0.21554935  0.07076101  0.57366942    -0.74700
O498        O  0.16211848  0.04707375  0.57570480    -0.78200
O499        O  0.13696789  0.96482281  0.62869250    -0.78900
C500        C  0.18902065  0.06971477  0.56998195     0.96400
O501        O  0.16488690  0.99139918  0.56129416    -0.76800
O502        O  0.24458793  0.07563820  0.61320668    -0.82000
C503        C  0.23021831  0.98734061  0.61337802     0.99000
C504        C  0.24568090  0.06968276  0.63184583     1.04900
O505        O  0.20400159  0.97738547  0.62333184    -0.77700
C506        C  0.19202611  0.99596833  0.55547214     1.03200
Fe507      Fe  0.35892699  0.79788682  0.59728252     1.65800
Fe508      Fe  0.39162637  0.87815948  0.59403733     1.73200
Fe509      Fe  0.35377654  0.83160654  0.55399308     1.54400
O510        O  0.38220353  0.81087034  0.54672116    -0.81400
O511        O  0.36348733  0.89347393  0.57941489    -0.79700
O512        O  0.36707488  0.77643868  0.57271397    -0.83900
O513        O  0.31053906  0.77582946  0.59066075    -0.78800
O514        O  0.39079644  0.87595453  0.54485958    -0.80500
O515        O  0.36020631  0.86467424  0.61831605    -0.83300
C516        C  0.29957228  0.76881155  0.57276569     0.97500
C517        C  0.38175996  0.78727622  0.55604426     1.04900
O518        O  0.36824370  0.83591826  0.58191144    -1.12300
O519        O  0.42232394  0.86777002  0.61043368    -0.74700
O520        O  0.40632021  0.81636523  0.60502536    -0.78200
O521        O  0.31456955  0.78619638  0.55769411    -0.78900
C522        C  0.42603761  0.84351924  0.61216515     0.96400
O523        O  0.35023977  0.81483396  0.62379107    -0.76800
O524        O  0.42477239  0.89536773  0.57065337    -0.82000
C525        C  0.33585094  0.87895552  0.57132003     0.99000
C526        C  0.41797575  0.89575733  0.55208659     1.04900
O527        O  0.32554532  0.85226919  0.56214140    -0.77700
C528        C  0.34932100  0.83963181  0.62912805     1.03200
Fe529      Fe  0.47813818  0.77085423  0.75917223     1.65800
Fe530      Fe  0.55867660  0.81932873  0.75973214     1.73200
Fe531      Fe  0.51465205  0.81141473  0.80121165     1.54400
O532        O  0.46759715  0.80239937  0.79937244    -0.81400
O533        O  0.57817753  0.80531876  0.78286334    -0.79700
O534        O  0.45488041  0.79604885  0.76679315    -0.83900
O535        O  0.46024947  0.74271078  0.78484809    -0.78800
O536        O  0.53238603  0.85918280  0.79235629    -0.80500
O537        O  0.54878618  0.77789585  0.74436967    -0.83300
C538        C  0.47519567  0.73966291  0.79983225     0.97500
C539        C  0.44851120  0.79904735  0.78506312     1.04900
O540        O  0.51717011  0.80071298  0.77307389    -1.12300
O541        O  0.54282498  0.83475174  0.73527432    -0.74700
O542        O  0.49228747  0.79526910  0.73195691    -0.78200
O543        O  0.49807466  0.76357988  0.80872496    -0.78900
C544        C  0.51692784  0.81992623  0.72532517     0.96400
O545        O  0.49742848  0.74277702  0.75050142    -0.76800
O546        O  0.57298298  0.86296016  0.77340842    -0.82000
C547        C  0.57938334  0.81257351  0.80143629     0.99000
C548        C  0.55831228  0.87554220  0.78223353     1.04900
O549        O  0.56053272  0.82114443  0.80899560    -0.77700
C550        C  0.52466299  0.75004436  0.74316331     1.03200
Fe551      Fe  0.69188017  0.19220354  0.76171839     1.65800
Fe552      Fe  0.72556549  0.14452204  0.76333351     1.73200
Fe553      Fe  0.69104246  0.15140140  0.72063249     1.54400
O554        O  0.65267788  0.16046404  0.72095018    -0.81400
O555        O  0.75998790  0.15743846  0.74068792    -0.79700
O556        O  0.64413360  0.16626609  0.75321293    -0.83900
O557        O  0.70290303  0.21972244  0.73567167    -0.78800
O558        O  0.66125474  0.10374359  0.72967828    -0.80500
O559        O  0.75598933  0.18668474  0.77811372    -0.83300
C560        C  0.72235152  0.22294357  0.72157879     0.97500
C561        C  0.63586414  0.16342322  0.73472577     1.04900
O562        O  0.70269850  0.16249100  0.74890001    -1.12300
O563        O  0.69380145  0.13009147  0.78759946    -0.74700
O564        O  0.68081794  0.16868359  0.78922077    -0.78200
O565        O  0.72230588  0.19907524  0.71317736    -0.78900
C566        C  0.68157262  0.14476940  0.79670319     0.96400
O567        O  0.73823536  0.22072526  0.77119154    -0.76800
O568        O  0.69694624  0.10046006  0.75017483    -0.82000
C569        C  0.75484257  0.15062659  0.72199059     0.99000
C570        C  0.67034459  0.08763146  0.74066326     1.04900
O571        O  0.72770793  0.14181436  0.71406093    -0.77700
C572        C  0.75859364  0.21421431  0.77890740     1.03200
Fe573      Fe  0.17630404  0.52081523  0.59692218     1.65800
Fe574      Fe  0.09574838  0.47062013  0.59593594     1.73200
Fe575      Fe  0.14091179  0.48372747  0.55389286     1.54400
O576        O  0.15508647  0.53194785  0.54840530    -0.81400
O577        O  0.08588136  0.42770219  0.58303241    -0.79700
O578        O  0.19323756  0.55057220  0.57198925    -0.83900
O579        O  0.20018725  0.49694854  0.58791229    -0.78800
O580        O  0.09458302  0.47156838  0.54584524    -0.80500
O581        O  0.11281598  0.45716827  0.62085956    -0.83300
C582        C  0.20684297  0.49558402  0.56948315     0.97500
C583        C  0.17720891  0.55510252  0.55836795     1.04900
O584        O  0.13738955  0.49151242  0.58255727    -1.12300
O585        O  0.10325514  0.51198628  0.61043541    -0.74700
O586        O  0.15562607  0.54688035  0.60709690    -0.78200
O587        O  0.18864479  0.49482633  0.55530258    -0.78900
C588        C  0.12752299  0.53956471  0.61283984     0.96400
O589        O  0.16409011  0.49476881  0.62335488    -0.76800
O590        O  0.07288572  0.48105638  0.57264420    -0.82000
C591        C  0.10269192  0.41804993  0.57356026     0.99000
C592        C  0.07298869  0.47581636  0.55379707     1.04900
O593        O  0.12576765  0.43589619  0.56151119    -0.77700
C594        C  0.13949028  0.47031701  0.63003667     1.03200
Fe595      Fe  0.93470947  0.09132946  0.58296441     1.65800
Fe596      Fe  0.92703447  0.15729093  0.58472746     1.73200
Fe597      Fe  0.95988840  0.13768235  0.62506080     1.54400
O598        O  0.93142135  0.08918012  0.63369267    -0.81400
O599        O  0.96955313  0.19686177  0.59177335    -0.79700
O600        O  0.90576582  0.06335797  0.60545162    -0.83900
O601        O  0.97315455  0.08963002  0.59614855    -0.78800
O602        O  0.92477680  0.14596101  0.63686663    -0.80500
O603        O  0.94835548  0.15664754  0.55730563    -0.83300
C604        C  0.99594231  0.10646931  0.60812513     0.97500
C605        C  0.91016000  0.06436826  0.62445494     1.04900
O606        O  0.94064376  0.12903505  0.59762583    -1.12300
O607        O  0.88284951  0.12148811  0.57480322    -0.74700
O608        O  0.89446404  0.08356514  0.56731641    -0.78200
O609        O  0.99775417  0.13050595  0.61707293    -0.78900
C610        C  0.87625902  0.09548307  0.56623905     0.96400
O611        O  0.96273103  0.11878495  0.55942606    -0.76800
O612        O  0.90432632  0.16027762  0.61104702    -0.82000
C613        C  0.99130854  0.20505598  0.60497523     0.99000
C614        C  0.90552874  0.15449716  0.62983144     1.04900
O615        O  0.99037884  0.18647745  0.61910924    -0.77700
C616        C  0.96217502  0.14185262  0.55031949     1.03200
Fe617      Fe  0.62680578  0.43854632  0.92062621     1.65800
Fe618      Fe  0.59004961  0.48337864  0.92196350     1.73200
Fe619      Fe  0.62841469  0.47733731  0.96281653     1.54400
O620        O  0.59725324  0.42918784  0.96994743    -0.81400
O621        O  0.61962501  0.52759877  0.93499230    -0.79700
O622        O  0.61639346  0.40997412  0.94615758    -0.83900
O623        O  0.67457595  0.46506530  0.92887477    -0.78800
O624        O  0.59323565  0.48834833  0.97090580    -0.80500
O625        O  0.61954540  0.49895924  0.89663240    -0.83300
C626        C  0.68326373  0.46680023  0.94718330     0.97500
C627        C  0.59687401  0.40579962  0.96045857     1.04900
O628        O  0.61501421  0.46644495  0.93475091    -1.12300
O629        O  0.55893066  0.44081874  0.90732509    -0.74700
O630        O  0.58063557  0.40931768  0.91092274    -0.78200
O631        O  0.66631435  0.46797941  0.96149108    -0.78900
C632        C  0.55840317  0.41434316  0.90484384     0.96400
O633        O  0.63742436  0.46411962  0.89393224    -0.76800
O634        O  0.55785026  0.46962273  0.94605006    -0.82000
C635        C  0.64802391  0.54032924  0.94214891     0.99000
C636        C  0.56531952  0.47905204  0.96421650     1.04900
O637        O  0.65788681  0.52467829  0.95300458    -0.77700
C638        C  0.63421762  0.48707423  0.88715530     1.03200
Fe639      Fe  0.83270836  0.85245893  0.93422319     1.65800
Fe640      Fe  0.75239045  0.80221592  0.93008496     1.73200
Fe641      Fe  0.80090937  0.82077298  0.88916839     1.54400
O642        O  0.81642747  0.86946925  0.88550916    -0.81400
O643        O  0.74266946  0.76140388  0.91395769    -0.79700
O644        O  0.85043143  0.88706802  0.91181589    -0.83900
O645        O  0.85916073  0.83192121  0.92360705    -0.78800
O646        O  0.75507809  0.80981211  0.88067266    -0.80500
O647        O  0.76703485  0.78455466  0.95385060    -0.83300
C648        C  0.86653039  0.83227728  0.90511469     0.97500
C649        C  0.83760145  0.89204333  0.89634574     1.04900
O650        O  0.79522689  0.82504485  0.91809748    -1.12300
O651        O  0.75832734  0.84061027  0.94773955    -0.74700
O652        O  0.81064718  0.87592052  0.94637623    -0.78200
O653        O  0.84826273  0.83147091  0.89102136    -0.78900
C654        C  0.78225412  0.86771867  0.95181574     0.96400
O655        O  0.81826385  0.82155054  0.95848606    -0.76800
O656        O  0.73250448  0.81731972  0.90781230    -0.82000
C657        C  0.75921195  0.75256809  0.90338186     0.99000
C658        C  0.73328852  0.81348041  0.88886930     1.04900
O659        O  0.78492898  0.77218360  0.89402474    -0.77700
C660        C  0.79293224  0.79652965  0.96382505     1.03200
Fe661      Fe  0.34533350  0.51407917  0.09888237     1.65800
Fe662      Fe  0.39050633  0.47751473  0.09673480     1.73200
Fe663      Fe  0.35325205  0.48439547  0.05520794     1.54400
O664        O  0.31311295  0.49066243  0.05508367    -0.81400
O665        O  0.42428519  0.49415471  0.07345945    -0.79700
O666        O  0.29992907  0.48705828  0.08718291    -0.83900
O667        O  0.35943045  0.54794267  0.07588704    -0.78800
O668        O  0.32595166  0.43547805  0.06276748    -0.80500
O669        O  0.41869858  0.52013949  0.11188931    -0.83300
C670        C  0.38009063  0.55519817  0.06174309     0.97500
C671        C  0.29379420  0.48874127  0.06877380     1.04900
O672        O  0.36328691  0.49207491  0.08395589    -1.12300
O673        O  0.36108020  0.45928032  0.12196771    -0.74700
O674        O  0.33085317  0.48271884  0.12289279    -0.78200
O675        O  0.38214594  0.53401647  0.05100240    -0.78900
C676        C  0.33963086  0.46379588  0.13004560     0.96400
O677        O  0.38805847  0.54316047  0.11265290    -0.76800
O678        O  0.36306605  0.43341012  0.08285098    -0.82000
C679        C  0.41845480  0.48633536  0.05498091     0.99000
C680        C  0.33570991  0.42003350  0.07405572     1.04900
O681        O  0.39107629  0.47729267  0.04751407    -0.77700
C682        C  0.41350216  0.54263274  0.11701110     1.03200
Fe683      Fe  0.15015924  0.09940370  0.08600733     1.65800
Fe684      Fe  0.22938753  0.15376843  0.08753353     1.73200
Fe685      Fe  0.18295795  0.13859884  0.12919859     1.54400
O686        O  0.13550002  0.12815509  0.12678811    -0.81400
O687        O  0.25102884  0.14054746  0.10994167    -0.79700
O688        O  0.12308935  0.12036406  0.09411084    -0.83900
O689        O  0.13302740  0.06878329  0.11044666    -0.78800
O690        O  0.19884484  0.18673385  0.12204224    -0.80500
O691        O  0.22309301  0.11470053  0.07045173    -0.83300
C692        C  0.14663964  0.06651559  0.12636471     0.97500
C693        C  0.11647318  0.12382808  0.11223616     1.04900
O694        O  0.18754621  0.13066284  0.10076329    -1.12300
O695        O  0.21112650  0.16882935  0.06421108    -0.74700
O696        O  0.16313308  0.12578480  0.05962445    -0.78200
O697        O  0.16785043  0.09079120  0.13588636    -0.78900
C698        C  0.18578961  0.15266870  0.05396727     0.96400
O699        O  0.17351539  0.07541820  0.07685130    -0.76800
O700        O  0.24062359  0.19593629  0.10236481    -0.82000
C701        C  0.24949541  0.14329875  0.12902144     0.99000
C702        C  0.22407340  0.20562361  0.11201227     1.04900
O703        O  0.22872980  0.14872289  0.13718043    -0.77700
C704        C  0.20106452  0.08576525  0.06903597     1.03200
Fe705      Fe  0.81504212  0.44136619  0.42397774     1.65800
Fe706      Fe  0.89593744  0.48822399  0.42815939     1.73200
Fe707      Fe  0.84779764  0.47053845  0.46925137     1.54400
O708        O  0.80038252  0.46050699  0.46814410    -0.81400
O709        O  0.91527235  0.47165691  0.45026064    -0.79700
O710        O  0.79014661  0.46243857  0.43578189    -0.83900
O711        O  0.79729834  0.40577666  0.44576521    -0.78800
O712        O  0.86482133  0.51929393  0.46438761    -0.80500
O713        O  0.88820933  0.44982619  0.41001351    -0.83300
C714        C  0.80957757  0.39991611  0.46120294     0.97500
C715        C  0.78202641  0.46001335  0.45420626     1.04900
O716        O  0.85306487  0.46660066  0.44019165    -1.12300
O717        O  0.88214186  0.50720830  0.40448942    -0.74700
O718        O  0.82964275  0.47404921  0.40060297    -0.78200
O719        O  0.83098192  0.42170247  0.47237073    -0.78900
C720        C  0.85589243  0.49793002  0.39514674     0.96400
O721        O  0.83519677  0.41728799  0.41024213    -0.76800
O722        O  0.90706408  0.52901906  0.44470233    -0.82000
C723        C  0.91449243  0.47493764  0.46930340     0.99000
C724        C  0.89053894  0.53839890  0.45481903     1.04900
O725        O  0.89342466  0.47986150  0.47748900    -0.77700
C726        C  0.86326308  0.42413744  0.40494196     1.03200
Fe727      Fe  0.02912269  0.85500783  0.43645375     1.65800
Fe728      Fe  0.05780193  0.80379082  0.43360134     1.73200
Fe729      Fe  0.01959411  0.81377313  0.39378065     1.54400
O730        O  0.98144294  0.82269770  0.39813151    -0.81400
O731        O  0.09018322  0.81802881  0.41006507    -0.79700
O732        O  0.98045365  0.83103366  0.43113474    -0.83900
O733        O  0.03711401  0.88354228  0.41120741    -0.78800
O734        O  0.99008478  0.76589447  0.40299230    -0.80500
O735        O  0.09011116  0.84406962  0.44962687    -0.83300
C736        C  0.05261568  0.88599801  0.39504819     0.97500
C737        C  0.96807830  0.82679167  0.41361386     1.04900
O738        O  0.03550139  0.82418065  0.42140737    -1.12300
O739        O  0.02666470  0.78771660  0.45801676    -0.74700
O740        O  0.02115547  0.83048087  0.46355499    -0.78200
O741        O  0.04983106  0.86162007  0.38561342    -0.78900
C742        C  0.01828804  0.80390197  0.46904425     0.96400
O743        O  0.07708423  0.88150435  0.44259203    -0.76800
O744        O  0.02854478  0.76130807  0.41908514    -0.82000
C745        C  0.08334930  0.81204600  0.39141938     0.99000
C746        C  0.99996949  0.74927336  0.41264566     1.04900
O747        O  0.05587108  0.80467800  0.38437226    -0.77700
C748        C  0.09599574  0.87283064  0.44994631     1.03200
Fe749      Fe  0.28203745  0.76348557  0.25571991     1.65800
Fe750      Fe  0.25528512  0.81553868  0.25475003     1.73200
Fe751      Fe  0.29459299  0.80922075  0.29654786     1.54400
O752        O  0.27413240  0.76012201  0.30507093    -0.81400
O753        O  0.29225174  0.86023425  0.26068396    -0.79700
O754        O  0.25254896  0.73151956  0.27663260    -0.83900
O755        O  0.32040340  0.76796573  0.27252373    -0.78800
O756        O  0.25371284  0.80827195  0.30698252    -0.80500
O757        O  0.27957862  0.81753452  0.22780977    -0.83300
C758        C  0.34088441  0.78872340  0.28416072     0.97500
C759        C  0.25698440  0.73353337  0.29570365     1.04900
O760        O  0.27696275  0.79622897  0.26932676    -1.12300
O761        O  0.21606320  0.77237119  0.24673685    -0.74700
O762        O  0.24372927  0.74949961  0.23648447    -0.78200
O763        O  0.33833780  0.81229263  0.29000847    -0.78900
C764        C  0.21815134  0.75091483  0.23695941     0.96400
O765        O  0.31159368  0.79712195  0.23522890    -0.76800
O766        O  0.22964655  0.81592742  0.28024367    -0.82000
C767        C  0.31379895  0.87350775  0.27404911     0.99000
C768        C  0.23164166  0.81207361  0.29922213     1.04900
O769        O  0.31650754  0.85840981  0.28927059    -0.77700
C770        C  0.30400094  0.81423008  0.22431827     1.03200
Fe771      Fe  0.49400084  0.20637729  0.26427707     1.65800
Fe772      Fe  0.41938476  0.14336776  0.26655255     1.73200
Fe773      Fe  0.46612395  0.15667303  0.22465118     1.54400
O774        O  0.49260407  0.20557504  0.21537192    -0.81400
O775        O  0.42015649  0.10210135  0.26143478    -0.79700
O776        O  0.49073209  0.23361660  0.24174071    -0.83900
O777        O  0.53059931  0.20414237  0.24832111    -0.78800
O778        O  0.42499607  0.15466989  0.21418984    -0.80500
O779        O  0.44417523  0.14650175  0.29330644    -0.83300
C780        C  0.53242284  0.18259165  0.23832909     0.97500
C781        C  0.49783810  0.23194342  0.22346224     1.04900
O782        O  0.45942309  0.16852730  0.25181262    -1.12300
O783        O  0.41427835  0.18194655  0.27462559    -0.74700
O784        O  0.46479780  0.21652195  0.28203024    -0.78200
O785        O  0.50770375  0.15726021  0.23300370    -0.78900
C786        C  0.43511099  0.20681486  0.28348301     0.96400
O787        O  0.49669115  0.17936224  0.28751613    -0.76800
O788        O  0.39124853  0.13762741  0.24067011    -0.82000
C789        C  0.42763630  0.09064295  0.24658639     0.99000
C790        C  0.39740285  0.14467215  0.22185702     1.04900
O791        O  0.44169153  0.10703823  0.23079329    -0.77700
C792        C  0.47365575  0.15874393  0.29825112     1.03200
C793        C  0.36017588  0.95051778  0.25384290     0.30000
C794        C  0.36952774  0.97390742  0.23857772    -0.36300
C795        C  0.39117746  0.00533217  0.24434165     0.16000
C796        C  0.40249964  0.01313359  0.26392008     0.21800
C797        C  0.39375847  0.98955970  0.27910260    -0.34400
C798        C  0.37221757  0.95801565  0.27327988     0.15900
O799        O  0.33856489  0.92020572  0.25194713    -0.26400
C800        C  0.33669729  0.90767575  0.27029968     0.05700
C801        C  0.35735914  0.93008882  0.28425937    -0.31300
O802        O  0.41883713  0.04427339  0.26668772    -0.23200
C803        C  0.41864392  0.05670347  0.24858524    -0.03100
C804        C  0.40198912  0.03351702  0.23400670    -0.17600
H805        H  0.35952922  0.96814449  0.22344395     0.20400
H806        H  0.40200732  0.99561044  0.29459559     0.18800
H807        H  0.36015056  0.92659533  0.30020413     0.18700
H808        H  0.39581134  0.03692063  0.21875427     0.14600
C809        C  0.13088643  0.81500785  0.35013215     0.30000
C810        C  0.13952493  0.81696771  0.32959351    -0.36300
C811        C  0.16708331  0.81480497  0.32546185     0.16000
C812        C  0.18483683  0.81086936  0.34052396     0.21800
C813        C  0.17636163  0.80917331  0.36108485    -0.34400
C814        C  0.14892626  0.81156048  0.36521867     0.15900
O815        O  0.10562809  0.81576446  0.35734567    -0.26400
C816        C  0.10766559  0.81312703  0.37733496     0.05700
C817        C  0.13422808  0.81059205  0.38313618    -0.31300
O818        O  0.20956381  0.80920030  0.33324528    -0.23200
C819        C  0.20775254  0.81218957  0.31324737    -0.03100
C820        C  0.18177282  0.81577367  0.30752111    -0.17600
H821        H  0.12562082  0.81981239  0.31766020     0.20400
H822        H  0.19016484  0.80614987  0.37301210     0.18800
H823        H  0.14121501  0.80771445  0.39827846     0.18700
H824        H  0.17480208  0.81871340  0.29239106     0.14600
C825        C  0.96745308  0.67290041  0.43356129     0.30000
C826        C  0.96917916  0.64982265  0.44557437    -0.36300
C827        C  0.94035739  0.62173367  0.44901611     0.16000
C828        C  0.91156719  0.61621676  0.44095464     0.21800
C829        C  0.90976204  0.63974108  0.42897244    -0.34400
C830        C  0.93889660  0.66834579  0.42565362     0.15900
O831        O  0.99179816  0.70085890  0.42893458    -0.26400
C832        C  0.97929596  0.71518991  0.41792049     0.05700
C833        C  0.94622198  0.69604723  0.41526422    -0.31300
O834        O  0.88849185  0.58641984  0.44411270    -0.23200
C835        C  0.90278161  0.57309156  0.45459380    -0.03100
C836        C  0.93499740  0.59419871  0.45807296    -0.17600
H837        H  0.99171121  0.65335216  0.45155821     0.20400
H838        H  0.88746240  0.63571316  0.42230488     0.18800
H839        H  0.92995089  0.70202831  0.40755984     0.18700
H840        H  0.95275461  0.58885451  0.46424311     0.14600
C841        C  0.29153536  0.13436548  0.16975065     0.30000
C842        C  0.29697205  0.13007750  0.19020807    -0.36300
C843        C  0.32736941  0.13421946  0.19479609     0.16000
C844        C  0.35067785  0.14200297  0.18018028     0.21800
C845        C  0.34503269  0.14567134  0.15967895    -0.34400
C846        C  0.31465542  0.14149818  0.15509260     0.15900
O847        O  0.26566618  0.13367668  0.16237559    -0.26400
C848        C  0.27207574  0.14012376  0.14269828     0.05700
C849        C  0.30215473  0.14492802  0.13722832    -0.31300
O850        O  0.37786572  0.14635270  0.18787266    -0.23200
C851        C  0.37206560  0.14120599  0.20769458    -0.03100
C852        C  0.34089251  0.13336026  0.21291637    -0.17600
H853        H  0.27905049  0.12475643  0.20181386     0.20400
H854        H  0.36335192  0.15211942  0.14819168     0.18800
H855        H  0.31359694  0.15133726  0.12248557     0.18700
H856        H  0.33009743  0.12854467  0.22785758     0.14600
C857        C  0.24673168  0.28336644  0.09601570     0.30000
C858        C  0.24741719  0.30668455  0.08256624    -0.36300
C859        C  0.27560473  0.33679442  0.08265740     0.16000
C860        C  0.30113472  0.34308798  0.09510431     0.21800
C861        C  0.30036048  0.32007260  0.10855096    -0.34400
C862        C  0.27234701  0.29030414  0.10853573     0.15900
O863        O  0.22438742  0.25284850  0.09713438    -0.26400
C864        C  0.23562363  0.24029213  0.11084416     0.05700
C865        C  0.26549247  0.26263873  0.11827095    -0.31300
O866        O  0.32518132  0.37228308  0.09286142    -0.23200
C867        C  0.31541648  0.38553589  0.07880996    -0.03100
C868        C  0.28451701  0.36451129  0.07185078    -0.17600
H869        H  0.22770767  0.30148093  0.07242187     0.20400
H870        H  0.32057595  0.32490336  0.11813425     0.18800
H871        H  0.28123237  0.25837523  0.12796244     0.18700
H872        H  0.27052169  0.36912090  0.06085698     0.14600
C873        C  0.68136483  0.61669246  0.92083770     0.30000
C874        C  0.68007257  0.64049631  0.90933947    -0.36300
C875        C  0.70906458  0.66874725  0.90655171     0.16000
C876        C  0.73765184  0.67360497  0.91459560     0.21800
C877        C  0.73904159  0.64931054  0.92592754    -0.34400
C878        C  0.70972459  0.62073917  0.92876807     0.15900
O879        O  0.65669925  0.58882666  0.92538093    -0.26400
C880        C  0.66884992  0.57421802  0.93646301     0.05700
C881        C  0.70195725  0.59293640  0.93910813    -0.31300
O882        O  0.76082359  0.70362188  0.91240808    -0.23200
C883        C  0.74682187  0.71783909  0.90260046    -0.03100
C884        C  0.71469265  0.69705870  0.89856405    -0.17600
H885        H  0.65767715  0.63754708  0.90350609     0.20400
H886        H  0.76110812  0.65289878  0.93272513     0.18800
H887        H  0.71793938  0.58671793  0.94696491     0.18700
H888        H  0.69710924  0.70295668  0.89278683     0.14600
C889        C  0.46287376  0.47918336  0.01501284     0.30000
C890        C  0.46733470  0.47090824  0.99533517    -0.36300
C891        C  0.49802464  0.47590837  0.99079623     0.16000
C892        C  0.52269667  0.48824324  0.00469588     0.21800
C893        C  0.51823543  0.49653749  0.02445025    -0.34400
C894        C  0.48741885  0.49148487  0.02900985     0.15900
O895        O  0.43599040  0.47619512  0.02235167    -0.26400
C896        C  0.44310335  0.48664345  0.04136479     0.05700
C897        C  0.47487078  0.49650196  0.04641009    -0.31300
O898        O  0.54941094  0.49086650  0.99717702    -0.23200
C899        C  0.54176866  0.48006972  0.97821345    -0.03100
C900        C  0.51005636  0.47043970  0.97341479    -0.17600
H901        H  0.44812359  0.46115998  0.98432496     0.20400
H902        H  0.53741575  0.50617069  0.03548607     0.18800
H903        H  0.48683041  0.50576933  0.06075547     0.18700
H904        H  0.49771455  0.46084156  0.95922034     0.14600
C905        C  0.97898145  0.47097603  0.49254348     0.30000
C906        C  0.00718168  0.46884879  0.49363419    -0.36300
C907        C  0.02008940  0.47106496  0.51315927     0.16000
C908        C  0.00628549  0.47507993  0.53047018     0.21800
C909        C  0.97803168  0.47701949  0.52938533    -0.34400
C910        C  0.96516737  0.47485714  0.50988888     0.15900
O911        O  0.96311378  0.47016613  0.47586282    -0.26400
C912        C  0.93876070  0.47357371  0.48264186     0.05700
C913        C  0.93894321  0.47653898  0.50369550    -0.31300
O914        O  0.02273231  0.47720264  0.54710691    -0.23200
C915        C  0.04747344  0.47446519  0.54040417    -0.03100
C916        C  0.04693271  0.47052104  0.51939698    -0.17600
H917        H  0.01846422  0.46598023  0.48018751     0.20400
H918        H  0.96699193  0.48032134  0.54280335     0.18800
H919        H  0.92228747  0.47983808  0.51308011     0.18700
H920        H  0.06408299  0.46796165  0.51004819     0.14600
C921        C  0.04957749  0.27953873  0.58694553     0.30000
C922        C  0.06555027  0.30208779  0.57142705    -0.36300
C923        C  0.07857579  0.33432657  0.57681703     0.16000
C924        C  0.07583171  0.34343429  0.59620946     0.21800
C925        C  0.06081535  0.32098617  0.61186359    -0.34400
C926        C  0.04788683  0.28881577  0.60648686     0.15900
O927        O  0.03160877  0.24849172  0.58445720    -0.26400
C928        C  0.01875633  0.23750645  0.60268596     0.05700
C929        C  0.02821784  0.26154579  0.61708592    -0.31300
O930        O  0.08542442  0.37408646  0.59737000    -0.23200
C931        C  0.09495236  0.38515888  0.57861738    -0.03100
C932        C  0.09165620  0.36153751  0.56512225    -0.17600
H933        H  0.06588290  0.29489742  0.55592121     0.20400
H934        H  0.05758090  0.32805477  0.62687158     0.18800
H935        H  0.01914798  0.25963593  0.63236798     0.18700
H936        H  0.09551006  0.36354653  0.54887650     0.14600
C937        C  0.86087628  0.15624459  0.67178896     0.30000
C938        C  0.85239267  0.15454241  0.69242647    -0.36300
C939        C  0.82372548  0.15479038  0.69656781     0.16000
C940        C  0.80468399  0.15622378  0.68136932     0.21800
C941        C  0.81335731  0.15833943  0.66083695    -0.34400
C942        C  0.84207948  0.15843913  0.65672690     0.15900
O943        O  0.88592631  0.15516205  0.66437177    -0.26400
C944        C  0.88331271  0.15702868  0.64430545     0.05700
C945        C  0.85651695  0.15926565  0.63871495    -0.31300
O946        O  0.77838220  0.15494896  0.68841926    -0.23200
C947        C  0.78051770  0.15305226  0.70846614    -0.03100
C948        C  0.80837530  0.15301145  0.71448197    -0.17600
H949        H  0.86691107  0.15275491  0.70438099     0.20400
H950        H  0.79848751  0.15943567  0.64885866     0.18800
H951        H  0.84828340  0.16021275  0.62356780     0.18700
H952        H  0.81581658  0.15122890  0.72971368     0.14600
C953        C  0.62874927  0.81452195  0.84130651     0.30000
C954        C  0.63982924  0.81868657  0.86140214    -0.36300
C955        C  0.66679279  0.81517135  0.86478214     0.16000
C956        C  0.68180057  0.80805200  0.84942766     0.21800
C957        C  0.67056589  0.80362826  0.82936097    -0.34400
C958        C  0.64360461  0.80715323  0.82598084     0.15900
O959        O  0.60430684  0.81730566  0.83469186    -0.26400
C960        C  0.60338042  0.81155709  0.81487458     0.05700
C961        C  0.62724217  0.80502436  0.80859175    -0.31300
O962        O  0.70701256  0.80653745  0.85589932    -0.23200
C963        C  0.70819457  0.81272536  0.87566522    -0.03100
C964        C  0.68367317  0.81816563  0.88207574    -0.17600
H965        H  0.62840205  0.82455504  0.87351432     0.20400
H966        H  0.68221968  0.79812363  0.81720637     0.18800
H967        H  0.63199804  0.79980691  0.79342511     0.18700
H968        H  0.67917491  0.82380319  0.89719205     0.14600
C969        C  0.61018531  0.95498837  0.77013136     0.30000
C970        C  0.63981754  0.97986000  0.76373470    -0.36300
C971        C  0.63965654  0.00639955  0.75528516     0.16000
C972        C  0.61235571  0.00888421  0.75333476     0.21800
C973        C  0.58234318  0.98367078  0.75977927    -0.34400
C974        C  0.58243533  0.95671464  0.76828498     0.15900
O975        O  0.60507722  0.92722732  0.77695686    -0.26400
C976        C  0.57360626  0.91047440  0.77988688     0.05700
C977        C  0.55809524  0.92765868  0.77483937    -0.31300
O978        O  0.61870058  0.03725556  0.74618185    -0.23200
C979        C  0.65044745  0.05271951  0.74344054    -0.03100
C980        C  0.66439733  0.03437017  0.74876405    -0.17600
H981        H  0.66159102  0.97847848  0.76510414     0.20400
H982        H  0.56056051  0.98499210  0.75832592     0.18800
H983        H  0.53258672  0.91906184  0.77424774     0.18700
H984        H  0.68963656  0.04158064  0.74923334     0.14600
C985        C  0.24209133  0.69460101  0.55393117     0.30000
C986        C  0.23136003  0.66895455  0.54021564    -0.36300
C987        C  0.20999885  0.63853037  0.54804334     0.16000
C988        C  0.19970042  0.63403769  0.56794509     0.21800
C989        C  0.20996199  0.65963385  0.58151585    -0.34400
C990        C  0.23168649  0.68981820  0.57381367     0.15900
O991        O  0.26563036  0.72392687  0.55071084    -0.26400
C992        C  0.27055280  0.73804784  0.56875756     0.05700
C993        C  0.24994951  0.71795931  0.58369175    -0.31300
O994        O  0.18409394  0.60374605  0.57309275    -0.23200
C995        C  0.18381514  0.58819951  0.55636145    -0.03100
C996        C  0.19959849  0.60863584  0.54015849    -0.17600
H997        H  0.24093621  0.67219007  0.52498804     0.20400
H998        H  0.20348170  0.65587362  0.59742611     0.18800
H999        H  0.25037244  0.72251716  0.59979882     0.18700
H1000       H  0.20588035  0.60266783  0.52567613     0.14600
C1001       C  0.48360557  0.85975263  0.64934154     0.30000
C1002       C  0.49901717  0.87378892  0.66767845    -0.36300
C1003       C  0.50737474  0.85522616  0.68001236     0.16000
C1004       C  0.50111834  0.82504278  0.67449494     0.21800
C1005       C  0.48703274  0.81163854  0.65585807    -0.34400
C1006       C  0.47839892  0.82998009  0.64368546     0.15900
O1007       O  0.46804689  0.86983142  0.63766868    -0.26400
C1008       C  0.45277818  0.84624276  0.62443568     0.05700
C1009       C  0.45883579  0.82111521  0.62725604    -0.31300
O1010       O  0.50542929  0.80958345  0.68951392    -0.23200
C1011       C  0.51518164  0.83020355  0.70475327    -0.03100
C1012       C  0.51720081  0.85919083  0.69977015    -0.17600
H1013       H  0.50159654  0.89626522  0.67280759     0.20400
H1014       H  0.48048723  0.78734758  0.65198816     0.18800
H1015       H  0.44730301  0.79803565  0.61991181     0.18700
H1016       H  0.52185864  0.87877914  0.70979258     0.14600
C1017       C  0.06091726  0.09475807  0.62132293     0.30000
C1018       C  0.09283892  0.10259395  0.62557404    -0.36300
C1019       C  0.09805827  0.07678047  0.62995611     0.16000
C1020       C  0.07344356  0.04560573  0.63019812     0.21800
C1021       C  0.04182385  0.03782734  0.62587195    -0.34400
C1022       C  0.03676044  0.06337062  0.62123847     0.15900
O1023       O  0.05030614  0.11473457  0.61656580    -0.26400
C1024       C  0.01913623  0.09558481  0.61296005     0.05700
C1025       C  0.00959567  0.06348391  0.61556740    -0.31300
O1026       O  0.08369680  0.02491788  0.63196112    -0.23200
C1027       C  0.11542977  0.04260308  0.63311057    -0.03100
C1028       C  0.12576837  0.07524020  0.63200519    -0.17600
H1029       H  0.11234255  0.12693993  0.62486295     0.20400
H1030       H  0.02265678  0.01330956  0.62523449     0.18800
H1031       H  0.98577601  0.04316640  0.61398815     0.18700
H1032       H  0.15006412  0.09457503  0.63005938     0.14600
C1033       C  0.27973836  0.90307962  0.58428397     0.30000
C1034       C  0.25088292  0.89994330  0.59217761    -0.36300
C1035       C  0.25222405  0.92821574  0.59940061     0.16000
C1036       C  0.28001507  0.95732097  0.59868273     0.21800
C1037       C  0.30848432  0.96045309  0.59078722    -0.34400
C1038       C  0.30711397  0.93250438  0.58365117     0.15900
O1039       O  0.28511883  0.87981002  0.57822169    -0.26400
C1040       C  0.31631171  0.89486670  0.57354189     0.05700
C1041       C  0.33084705  0.92764819  0.57654464    -0.31300
O1042       O  0.27601445  0.98098122  0.60501653    -0.23200
C1043       C  0.24526548  0.96731144  0.61019808    -0.03100
C1044       C  0.22912664  0.93431268  0.60711407    -0.17600
H1045       H  0.22909679  0.87710854  0.59286035     0.20400
H1046       H  0.33034102  0.98325766  0.59025909     0.18800
H1047       H  0.35604224  0.94511565  0.57529850     0.18700
H1048       H  0.20374986  0.91778565  0.60871669     0.14600
C1049       C  0.18038452  0.97221702  0.50530193     0.30000
C1050       C  0.16618677  0.97000259  0.48639744    -0.36300
C1051       C  0.15483037  0.94093519  0.47630552     0.16000
C1052       C  0.15786059  0.91586698  0.48404727     0.21800
C1053       C  0.17355495  0.91869418  0.50254627    -0.34400
C1054       C  0.18431826  0.94760178  0.51290832     0.15900
O1055       O  0.18549558  0.99390446  0.51906060    -0.26400
C1056       C  0.19337433  0.98351590  0.53558497     0.05700
C1057       C  0.19331874  0.95494675  0.53268795    -0.31300
O1058       O  0.13955710  0.88887699  0.47445888    -0.23200
C1059       C  0.12463337  0.89680821  0.46052067    -0.03100
C1060       C  0.13366999  0.92899396  0.46075591    -0.17600
H1061       H  0.16098076  0.98823952  0.48105780     0.20400
H1062       H  0.17405345  0.89852914  0.50945204     0.18800
H1063       H  0.19528352  0.93981915  0.54412079     0.18700
H1064       H  0.12302035  0.94091645  0.45253333     0.14600
C1065       C  0.53037371  0.19248265  0.72294352     0.30000
C1066       C  0.53718610  0.17225534  0.73483762    -0.36300
C1067       C  0.56498457  0.17105260  0.72972877     0.16000
C1068       C  0.58424543  0.18786129  0.71356077     0.21800
C1069       C  0.57734987  0.20801795  0.70158855    -0.34400
C1070       C  0.54993727  0.20986293  0.70703566     0.15900
O1071       O  0.50919709  0.20138695  0.72751830    -0.26400
C1072       C  0.51477336  0.22469150  0.71440683     0.05700
C1073       C  0.54006723  0.23104894  0.70128897    -0.31300
O1074       O  0.61056135  0.18559947  0.71262327    -0.23200
C1075       C  0.60845884  0.16748733  0.72853891    -0.03100
C1076       C  0.58060968  0.15784250  0.73979729    -0.17600
H1077       H  0.52315432  0.16026411  0.74816551     0.20400
H1078       H  0.59351180  0.22295776  0.68977788     0.18800
H1079       H  0.55222859  0.25113325  0.69104740     0.18700
H1080       H  0.57377611  0.14457108  0.75391472     0.14600
C1081       C  0.29859128  0.11396020  0.67123108     0.30000
C1082       C  0.31198813  0.11896039  0.69078948    -0.36300
C1083       C  0.33775451  0.14956947  0.69474950     0.16000
C1084       C  0.34959960  0.17360118  0.68040267     0.21800
C1085       C  0.33636144  0.16852736  0.66076999    -0.34400
C1086       C  0.31050321  0.13791188  0.65682774     0.15900
O1087       O  0.27421376  0.08725419  0.66441136    -0.26400
C1088       C  0.27030766  0.09399290  0.64533393     0.05700
C1089       C  0.29232786  0.12523420  0.63976569    -0.31300
O1090       O  0.37336323  0.20055297  0.68748233    -0.23200
C1091       C  0.37685358  0.19381626  0.70665870    -0.03100
C1092       C  0.35536468  0.16233429  0.71197699    -0.17600
H1093       H  0.30277044  0.10031925  0.70219202     0.20400
H1094       H  0.34542929  0.18723834  0.64941368     0.18800
H1095       H  0.29465899  0.13682609  0.62527390     0.18700
H1096       H  0.35285105  0.15069438  0.72647194     0.14600
C1097       C  0.47564801  0.33095514  0.84015139     0.30000
C1098       C  0.48005826  0.35819619  0.85070811    -0.36300
C1099       C  0.49837673  0.36561103  0.86859742     0.16000
C1100       C  0.51095517  0.34709921  0.87571610     0.21800
C1101       C  0.50581569  0.31951876  0.86552968    -0.34400
C1102       C  0.48819695  0.31255557  0.84752372     0.15900
O1103       O  0.46391734  0.32249659  0.82160060    -0.26400
C1104       C  0.46924766  0.29854595  0.81715479     0.05700
C1105       C  0.48416985  0.29136629  0.83272878    -0.31300
O1106       O  0.53160417  0.36087778  0.89053685    -0.23200
C1107       C  0.53240702  0.38861642  0.89315165    -0.03100
C1108       C  0.51184618  0.39272342  0.88009377    -0.17600
H1109       H  0.47207573  0.37393753  0.84453730     0.20400
H1110       H  0.51719728  0.30600559  0.87035904     0.18800
H1111       H  0.49310508  0.27464955  0.83247815     0.18700
H1112       H  0.50999988  0.41401846  0.87779791     0.14600
C1113       C  0.40243951  0.60115743  0.80596941     0.30000
C1114       C  0.40860662  0.62742602  0.81827316    -0.36300
C1115       C  0.43443398  0.65700750  0.81234149     0.16000
C1116       C  0.45315910  0.66017987  0.79565148     0.21800
C1117       C  0.44708387  0.63394419  0.78343512    -0.34400
C1118       C  0.42086035  0.60459655  0.78907009     0.15900
O1119       O  0.37750662  0.57222886  0.80745357    -0.26400
C1120       C  0.37967902  0.55700446  0.79118643     0.05700
C1121       C  0.40617451  0.57602197  0.77913165    -0.31300
O1122       O  0.47275353  0.69020114  0.79096166    -0.23200
C1123       C  0.46695941  0.70681533  0.80478043    -0.03100
C1124       C  0.44317144  0.68737044  0.81851433    -0.17600
H1125       H  0.39302721  0.62530040  0.83077059     0.20400
H1126       H  0.46043669  0.63672153  0.76961683     0.18800
H1127       H  0.41272040  0.57015689  0.76469793     0.18700
H1128       H  0.43123799  0.69444624  0.82960511     0.14600
C1129       C  0.36647328  0.37314999  0.78352531     0.30000
C1130       C  0.36677496  0.34424533  0.78447455    -0.36300
C1131       C  0.38632373  0.34019753  0.77034025     0.16000
C1132       C  0.40491636  0.36296090  0.75617013     0.21800
C1133       C  0.40477085  0.39226074  0.75528459    -0.34400
C1134       C  0.38493519  0.39635413  0.76952909     0.15900
O1135       O  0.34670103  0.37979894  0.79362762    -0.26400
C1136       C  0.35280136  0.40816740  0.78658178     0.05700
C1137       C  0.37640187  0.41956613  0.77146584    -0.31300
O1138       O  0.42088142  0.35325065  0.74418706    -0.23200
C1139       C  0.41183991  0.32369068  0.75078775    -0.03100
C1140       C  0.39042883  0.31471972  0.76699770    -0.17600
H1141       H  0.35170378  0.32553530  0.79501584     0.20400
H1142       H  0.41835294  0.41018172  0.74393472     0.18800
H1143       H  0.38337459  0.44002042  0.76165804     0.18700
H1144       H  0.37952912  0.29243002  0.77535284     0.14600
C1145       C  0.18263790  0.44972771  0.70871071     0.30000
C1146       C  0.17019909  0.46796094  0.70019144    -0.36300
C1147       C  0.15739322  0.45919961  0.68068655     0.16000
C1148       C  0.15658286  0.43399981  0.67022866     0.21800
C1149       C  0.16834729  0.41517991  0.67899846    -0.34400
C1150       C  0.18134209  0.42405969  0.69856515     0.15900
O1151       O  0.20031363  0.45717877  0.72518136    -0.26400
C1152       C  0.21019515  0.43583215  0.72586330     0.05700
C1153       C  0.19882572  0.41429878  0.70983354    -0.31300
O1154       O  0.14772866  0.43298858  0.65113900    -0.23200
C1155       C  0.14251283  0.45760862  0.64955538    -0.03100
C1156       C  0.14824148  0.47476120  0.66740242    -0.17600
H1157       H  0.17256976  0.48902967  0.70763268     0.20400
H1158       H  0.16937920  0.39641217  0.67061165     0.18800
H1159       H  0.20553622  0.39659382  0.70583742     0.18700
H1160       H  0.14840427  0.49709278  0.66968667     0.14600
C1161       C  0.78931525  0.43859955  0.95609840     0.30000
C1162       C  0.78025833  0.45598530  0.94316335    -0.36300
C1163       C  0.75421946  0.45932919  0.94954798     0.16000
C1164       C  0.73869318  0.44714799  0.96775120     0.21800
C1165       C  0.74798910  0.42999079  0.98083118    -0.34400
C1166       C  0.77365108  0.42599289  0.97420797     0.15900
O1167       O  0.80869263  0.42772212  0.95110726    -0.26400
C1168       C  0.80589880  0.40801537  0.96614858     0.05700
C1169       C  0.78436485  0.40599589  0.98104598    -0.31300
O1170       O  0.71289497  0.45008732  0.96970535    -0.23200
C1171       C  0.71163775  0.46398653  0.95246265    -0.03100
C1172       C  0.73677069  0.47028184  0.93932704    -0.17600
H1173       H  0.79108313  0.46404908  0.92835257     0.20400
H1174       H  0.73459411  0.41852670  0.99445772     0.18800
H1175       H  0.77465976  0.38901106  0.99341981     0.18700
H1176       H  0.74046051  0.47963564  0.92401047     0.14600
C1177       C  0.81639569  0.25813417  0.81510092     0.30000
C1178       C  0.83302276  0.26093188  0.83321524    -0.36300
C1179       C  0.84016596  0.28768963  0.84515893     0.16000
C1180       C  0.83157262  0.31008579  0.83949940     0.21800
C1181       C  0.81629830  0.30804863  0.82105695    -0.34400
C1182       C  0.80897483  0.28128916  0.80925010     0.15900
O1183       O  0.80175165  0.23225747  0.80385978    -0.26400
C1184       C  0.78490447  0.23905126  0.79069646     0.05700
C1185       C  0.78900550  0.26947377  0.79310932    -0.31300
O1186       O  0.83543399  0.32999966  0.85418933    -0.23200
C1187       C  0.84722609  0.32077093  0.86934520    -0.03100
C1188       C  0.85111945  0.29478507  0.86463188    -0.17600
H1189       H  0.83748997  0.24217769  0.83847962     0.20400
H1190       H  0.80808513  0.32463914  0.81707115     0.18800
H1191       H  0.77599555  0.27974901  0.78574654     0.18700
H1192       H  0.85794792  0.28132923  0.87467094     0.14600
C1193       C  0.17127995  0.33098234  0.82612662     0.30000
C1194       C  0.13990365  0.30502800  0.82721304    -0.36300
C1195       C  0.12994205  0.29019072  0.84630454     0.16000
C1196       C  0.14942116  0.30021397  0.86320648     0.21800
C1197       C  0.18066059  0.32632204  0.86216097    -0.34400
C1198       C  0.19062850  0.34109783  0.84308441     0.15900
O1199       O  0.18586508  0.34785231  0.80972297    -0.26400
C1200       C  0.21493260  0.36915022  0.81629785     0.05700
C1201       C  0.21911840  0.36605921  0.83694663    -0.31300
O1202       O  0.13541556  0.28257937  0.87944110    -0.23200
C1203       C  0.10652207  0.26086498  0.87288477    -0.03100
C1204       C  0.10180787  0.26456233  0.85238624    -0.17600
H1205       H  0.12445593  0.29674383  0.81404755     0.20400
H1206       H  0.19624489  0.33437334  0.87527014     0.18800
H1207       H  0.24030456  0.37993592  0.84604891     0.18700
H1208       H  0.08071737  0.25033726  0.84328390     0.14600
C1209       C  0.86314857  0.97269182  0.90201897     0.30000
C1210       C  0.87219014  0.99962635  0.91422332    -0.36300
C1211       C  0.89561552  0.02883885  0.90618232     0.16000
C1212       C  0.90885191  0.03150709  0.88719724     0.21800
C1213       C  0.89935931  0.00450822  0.87479109    -0.34400
C1214       C  0.87617264  0.97506382  0.88299209     0.15900
O1215       O  0.84571497  0.94293814  0.90806739    -0.26400
C1216       C  0.84693427  0.92564930  0.89273303     0.05700
C1217       C  0.86556343  0.94434729  0.87659841    -0.31300
O1218       O  0.93318285  0.06038377  0.88379044    -0.23200
C1219       C  0.93570566  0.07633210  0.90084503    -0.03100
C1220       C  0.91281035  0.05786872  0.91526911    -0.17600
H1221       H  0.86333109  0.99757179  0.92957753     0.20400
H1222       H  0.91088953  0.00605807  0.86038848     0.18800
H1223       H  0.87309889  0.93666155  0.86328323     0.18700
H1224       H  0.91084677  0.06413138  0.93076288     0.14600
C1225       C  0.90819963  0.26036319  0.93336344     0.30000
C1226       C  0.90747004  0.23670646  0.92032515    -0.36300
C1227       C  0.93608594  0.23522263  0.91888397     0.16000
C1228       C  0.96316493  0.25575064  0.92959304     0.21800
C1229       C  0.96374188  0.27878168  0.94273436    -0.34400
C1230       C  0.93542815  0.28017372  0.94419087     0.15900
O1231       O  0.88594432  0.26891363  0.93514270    -0.26400
C1232       C  0.89904877  0.29411214  0.94752708     0.05700
C1233       C  0.92981165  0.30204729  0.95353371    -0.31300
O1234       O  0.98758107  0.25147158  0.92576544    -0.23200
C1235       C  0.97658016  0.22772223  0.91243952    -0.03100
C1236       C  0.94440359  0.21634902  0.90755542    -0.17600
H1237       H  0.88654269  0.22142950  0.91137814     0.20400
H1238       H  0.98526484  0.29527907  0.95077891     0.18800
H1239       H  0.94685797  0.32306178  0.96173713     0.18700
H1240       H  0.92944653  0.19710675  0.89738459     0.14600
C1241       C  0.14704402  0.19638276  0.98179451     0.30000
C1242       C  0.16298933  0.20930083  0.00018164    -0.36300
C1243       C  0.17213599  0.19018977  0.01129175     0.16000
C1244       C  0.16596662  0.16052962  0.00460664     0.21800
C1245       C  0.15118750  0.14822164  0.98599431    -0.34400
C1246       C  0.14196059  0.16713627  0.97501278     0.15900
O1247       O  0.13106734  0.20701316  0.97102797    -0.26400
C1248       C  0.11571175  0.18425848  0.95729931     0.05700
C1249       C  0.12209774  0.15920868  0.95884228    -0.31300
O1250       O  0.17161416  0.14443922  0.01852169    -0.23200
C1251       C  0.18222133  0.16412573  0.03421361    -0.03100
C1252       C  0.18335481  0.19313398  0.03067028    -0.17600
H1253       H  0.16564563  0.23137459  0.00618633     0.20400
H1254       H  0.14484854  0.12433254  0.98123046     0.18800
H1255       H  0.11063282  0.13667222  0.95085126     0.18700
H1256       H  0.18857012  0.21206704  0.04139583     0.14600
C1257       C  0.38481364  0.75594718  0.30568605     0.30000
C1258       C  0.38887823  0.73095058  0.31328763    -0.36300
C1259       C  0.42055011  0.73767076  0.31612908     0.16000
C1260       C  0.44648701  0.76693866  0.31142750     0.21800
C1261       C  0.44238436  0.79242240  0.30452873    -0.34400
C1262       C  0.41059826  0.78576398  0.30188418     0.15900
O1263       O  0.35746684  0.75357601  0.29994540    -0.26400
C1264       C  0.36549811  0.78236619  0.29271729     0.05700
C1265       C  0.39828916  0.80362231  0.29363726    -0.31300
O1266       O  0.47322549  0.76557849  0.31012983    -0.23200
C1267       C  0.46461908  0.73523824  0.31426306    -0.03100
C1268       C  0.43213834  0.71712911  0.31877404    -0.17600
H1269       H  0.36875220  0.70717934  0.31539603     0.20400
H1270       H  0.46253059  0.81500703  0.29992208     0.18800
H1271       H  0.41119553  0.82793278  0.28808797     0.18700
H1272       H  0.41802386  0.69133761  0.31927719     0.14600
C1273       C  0.49007725  0.62794990  0.18279928     0.30000
C1274       C  0.49038398  0.60405656  0.17075487    -0.36300
C1275       C  0.46976128  0.59416485  0.15392384     0.16000
C1276       C  0.45067896  0.60735054  0.14924940     0.21800
C1277       C  0.45059026  0.63127750  0.16109718    -0.34400
C1278       C  0.47057343  0.64061575  0.17802064     0.15900
O1279       O  0.50507906  0.63880771  0.20022841    -0.26400
C1280       C  0.49454721  0.65820386  0.20657345     0.05700
C1281       C  0.47307516  0.66020738  0.19344171    -0.31300
O1282       O  0.43041977  0.59221615  0.13458647    -0.23200
C1283       C  0.43631412  0.56890727  0.12965947    -0.03100
C1284       C  0.46083752  0.56901622  0.14102357    -0.17600
H1285       H  0.50430045  0.59276982  0.17485172     0.20400
H1286       H  0.43450804  0.64052016  0.15804128     0.18800
H1287       H  0.46035449  0.67336955  0.19537854     0.18700
H1288       H  0.46861265  0.55139854  0.14115803     0.14600
C1289       C  0.58052331  0.36831595  0.21920649     0.30000
C1290       C  0.54759720  0.34666745  0.21696813    -0.36300
C1291       C  0.53912887  0.31476658  0.21287179     0.16000
C1292       C  0.56157253  0.30498915  0.21055297     0.21800
C1293       C  0.59444102  0.32669919  0.21245804    -0.34400
C1294       C  0.60278345  0.35823641  0.21722641     0.15900
O1295       O  0.59354913  0.39833289  0.22537993    -0.26400
C1296       C  0.62442273  0.40723439  0.22779741     0.05700
C1297       C  0.63142267  0.38324770  0.22291007    -0.31300
O1298       O  0.54860439  0.27361331  0.21062385    -0.23200
C1299       C  0.51737774  0.26277244  0.21314190    -0.03100
C1300       C  0.51018451  0.28748771  0.21444676    -0.17600
H1301       H  0.52970903  0.35365438  0.21985613     0.20400
H1302       H  0.61211446  0.31892358  0.21208078     0.18800
H1303       H  0.65425827  0.38389603  0.22400084     0.18700
H1304       H  0.48774513  0.28570010  0.21916704     0.14600
C1305       C  0.58068663  0.60412976  0.25596748     0.30000
C1306       C  0.59245344  0.59270918  0.24042586    -0.36300
C1307       C  0.60743076  0.57539296  0.24663245     0.16000
C1308       C  0.61076321  0.57001665  0.26682847     0.21800
C1309       C  0.59822330  0.58071042  0.28237730    -0.34400
C1310       C  0.58303960  0.59787305  0.27614518     0.15900
O1311       O  0.56882841  0.62341874  0.25353769    -0.26400
C1312       C  0.56292191  0.62936402  0.27232500     0.05700
C1313       C  0.57105961  0.61386459  0.28710082    -0.31300
O1314       O  0.62910942  0.55704133  0.26936303    -0.23200
C1315       C  0.63729927  0.55351082  0.25058740    -0.03100
C1316       C  0.62418745  0.56421238  0.23574994    -0.17600
H1317       H  0.59138932  0.59830898  0.22462353     0.20400
H1318       H  0.60152114  0.57727176  0.29825407     0.18800
H1319       H  0.57035414  0.61587327  0.30342628     0.18700
H1320       H  0.62873318  0.56617515  0.21957618     0.14600
C1321       C  0.82508934  0.52729194  0.31516602     0.30000
C1322       C  0.84028285  0.51159245  0.32371939    -0.36300
C1323       C  0.84824397  0.51759650  0.34429576     0.16000
C1324       C  0.84156945  0.53757915  0.35576956     0.21800
C1325       C  0.82758944  0.55435046  0.34697594    -0.34400
C1326       C  0.81984199  0.54853940  0.32631264     0.15900
O1327       O  0.80993161  0.52017430  0.29764937    -0.26400
C1328       C  0.79559962  0.53777631  0.29726710     0.05700
C1329       C  0.80126796  0.55622941  0.31456784    -0.31300
O1330       O  0.84561151  0.53514265  0.37538582    -0.23200
C1331       C  0.85575929  0.51397987  0.37634376    -0.03100
C1332       C  0.85789011  0.50233811  0.35751336    -0.17600
H1333       H  0.84311485  0.49378557  0.31540332     0.20400
H1334       H  0.82078837  0.56882756  0.35598488     0.18800
H1335       H  0.78954549  0.56955117  0.31905771     0.18700
H1336       H  0.86247589  0.48291100  0.35431315     0.14600
C1337       C  0.85192479  0.67970014  0.17397457     0.30000
C1338       C  0.84308595  0.67231250  0.19454175    -0.36300
C1339       C  0.81485781  0.64329322  0.19841460     0.16000
C1340       C  0.79687521  0.62294553  0.18304930     0.21800
C1341       C  0.80567494  0.63034664  0.16254619    -0.34400
C1342       C  0.83362931  0.65942573  0.15867178     0.15900
O1343       O  0.87746646  0.70533693  0.16690493    -0.26400
C1344       C  0.87544473  0.70162369  0.14677770     0.05700
C1345       C  0.84853194  0.67344923  0.14080556    -0.31300
O1346       O  0.77163937  0.59697290  0.18993012    -0.23200
C1347       C  0.77304746  0.60052657  0.21003098    -0.03100
C1348       C  0.79955817  0.62901364  0.21621893    -0.17600
H1349       H  0.85724097  0.68808793  0.20666549     0.20400
H1350       H  0.79163007  0.61448006  0.15042903     0.18800
H1351       H  0.84132993  0.66437564  0.12557136     0.18700
H1352       H  0.80667573  0.63771040  0.23153283     0.14600
C1353       C  0.12303266  0.98663411  0.12367954     0.30000
C1354       C  0.11521641  0.95975462  0.11166832    -0.36300
C1355       C  0.08831300  0.93127561  0.11775637     0.16000
C1356       C  0.07093501  0.92917718  0.13494320     0.21800
C1357       C  0.07902459  0.95602172  0.14713917    -0.34400
C1358       C  0.10545929  0.98479434  0.14071624     0.15900
O1359       O  0.14288255  0.01625294  0.11830508    -0.26400
C1360       C  0.13841620  0.03392940  0.13200714     0.05700
C1361       C  0.11536554  0.01560337  0.14642581    -0.31300
O1362       O  0.04471509  0.90123144  0.13659106    -0.23200
C1363       C  0.04500677  0.88535864  0.12014015    -0.03100
C1364       C  0.07159371  0.90287413  0.10783203    -0.17600
H1365       H  0.12755024  0.96159628  0.09753922     0.20400
H1366       H  0.06416625  0.95505645  0.15978714     0.18800
H1367       H  0.10428297  0.02364832  0.15752036     0.18700
H1368       H  0.07676529  0.89638371  0.09316033     0.14600
C1369       C  0.80810179  0.78432290  0.01316359     0.30000
C1370       C  0.82177677  0.79632149  0.03211648    -0.36300
C1371       C  0.83659599  0.78102439  0.04155093     0.16000
C1372       C  0.83710097  0.75499004  0.03321079     0.21800
C1373       C  0.82243760  0.74228529  0.01450018    -0.34400
C1374       C  0.80825949  0.75812883  0.00477238     0.15900
O1375       O  0.79960528  0.79933626  0.00007060    -0.26400
C1376       C  0.79381764  0.78247608  0.98317606     0.05700
C1377       C  0.79851055  0.75636714  0.98514324    -0.31300
O1378       O  0.85654562  0.74765581  0.04300207    -0.23200
C1379       C  0.86874338  0.76941452  0.05760626    -0.03100
C1380       C  0.85705724  0.79064908  0.05753436    -0.17600
H1381       H  0.82364243  0.81809306  0.03808910     0.20400
H1382       H  0.82464492  0.72337409  0.00716470     0.18800
H1383       H  0.79890117  0.74111833  0.97323319     0.18700
H1384       H  0.86472442  0.81175947  0.06675334     0.14600
C1385       C  0.19516205  0.52725674  0.06218458     0.30000
C1386       C  0.20335971  0.50911871  0.07504653    -0.36300
C1387       C  0.22613190  0.50153558  0.06756802     0.16000
C1388       C  0.23972838  0.51080279  0.04856316     0.21800
C1389       C  0.23097309  0.52846506  0.03547050    -0.34400
C1390       C  0.20835766  0.53644279  0.04307270     0.15900
O1391       O  0.17854873  0.54110287  0.06759080    -0.26400
C1392       C  0.18044058  0.55917856  0.05175041     0.05700
C1393       C  0.19875036  0.55725482  0.03594932    -0.31300
O1394       O  0.26378838  0.50509364  0.04585850    -0.23200
C1395       C  0.26562599  0.49204686  0.06335860    -0.03100
C1396       C  0.24255980  0.48907842  0.07733300    -0.17600
H1397       H  0.19442857  0.50342840  0.09045160     0.20400
H1398       H  0.24273783  0.53738911  0.02099914     0.18800
H1399       H  0.20678307  0.57171720  0.02232934     0.18700
H1400       H  0.24026845  0.48171131  0.09306482     0.14600
C1401       C  0.04297803  0.72499186  0.10178486     0.30000
C1402       C  0.06850341  0.72702604  0.08986383    -0.36300
C1403       C  0.06772256  0.69788220  0.08558356     0.16000
C1404       C  0.04331103  0.66908478  0.09252958     0.21800
C1405       C  0.01823438  0.66709505  0.10442688    -0.34400
C1406       C  0.01925632  0.69592815  0.10885468     0.15900
O1407       O  0.03669831  0.74834132  0.10589897    -0.26400
C1408       C  0.00891494  0.73393921  0.11605475     0.05700
C1409       C  0.99727720  0.70135695  0.11830423    -0.31300
O1410       O  0.04703803  0.64482690  0.08736247    -0.23200
C1411       C  0.07430563  0.65763192  0.07689714    -0.03100
C1412       C  0.08840463  0.69080459  0.07518350    -0.17600
H1413       H  0.08722881  0.74957435  0.08402794     0.20400
H1414       H  0.99896573  0.64442792  0.10972812     0.18800
H1415       H  0.97400118  0.68362548  0.12394754     0.18700
H1416       H  0.11112617  0.70728497  0.06827517     0.14600
C1417       C  0.01928811  0.50842799  0.01257202     0.30000
C1418       C  0.00836165  0.50250792  0.99241241    -0.36300
C1419       C  0.98201154  0.47230538  0.98858560     0.16000
C1420       C  0.96743485  0.44965685  0.00363322     0.21800
C1421       C  0.97838144  0.45556351  0.02376625    -0.34400
C1422       C  0.00479966  0.48568357  0.02757399     0.15900
O1423       O  0.04345844  0.53502211  0.01950701    -0.26400
C1424       C  0.04462487  0.52927931  0.03918777     0.05700
C1425       C  0.02111644  0.49890597  0.04510281    -0.31300
O1426       O  0.94299297  0.42319732  0.99681913    -0.23200
C1427       C  0.94182506  0.42878699  0.97713037    -0.03100
C1428       C  0.96558089  0.45900380  0.97108602    -0.17600
H1429       H  0.01960693  0.52022863  0.98056522     0.20400
H1430       H  0.96704456  0.43789450  0.03562991     0.18800
H1431       H  0.01661415  0.48827112  0.06008363     0.18700
H1432       H  0.96987454  0.46964404  0.95611189     0.14600
C1433       C  0.16966775  0.68578950  0.20721950     0.30000
C1434       C  0.16411962  0.65805284  0.19716772    -0.36300
C1435       C  0.14865957  0.65245563  0.17847365     0.16000
C1436       C  0.13861086  0.67240129  0.17019220     0.21800
C1437       C  0.14346993  0.69997265  0.18059215    -0.34400
C1438       C  0.15952820  0.70591798  0.19934478     0.15900
O1439       O  0.18903174  0.69820491  0.22271987    -0.26400
C1440       C  0.19134791  0.72659406  0.22520338     0.05700
C1441       C  0.17314046  0.73267962  0.21125989    -0.31300
O1442       O  0.12864532  0.66464179  0.15123763    -0.23200
C1443       C  0.13255816  0.63956252  0.14759147    -0.03100
C1444       C  0.14485752  0.63102899  0.16397066    -0.17600
H1445       H  0.17374144  0.64331436  0.20271902     0.20400
H1446       H  0.13748305  0.71686215  0.17381816     0.18800
H1447       H  0.17344291  0.75500739  0.20857407     0.18700
H1448       H  0.15226873  0.61313127  0.16451421     0.14600
C1449       C  0.87325002  0.87034541  0.41223388     0.30000
C1450       C  0.88592404  0.85722265  0.42596735    -0.36300
C1451       C  0.90385096  0.84436672  0.41755527     0.16000
C1452       C  0.90878422  0.84411292  0.39694374     0.21800
C1453       C  0.89513956  0.85642541  0.38307656    -0.34400
C1454       C  0.87730809  0.86963986  0.39154573     0.15900
O1455       O  0.85974711  0.88735303  0.41722617    -0.26400
C1456       C  0.85450553  0.89759030  0.39963258     0.05700
C1457       C  0.86456939  0.88701008  0.38296398    -0.31300
O1458       O  0.93028900  0.83533518  0.39270503    -0.23200
C1459       C  0.93913153  0.82987066  0.41082867    -0.03100
C1460       C  0.92311210  0.83480403  0.42678618    -0.17600
H1461       H  0.88386298  0.85900518  0.44222254     0.20400
H1462       H  0.89995761  0.85763165  0.36696027     0.18800
H1463       H  0.86490352  0.89333397  0.36716111     0.18700
H1464       H  0.92744475  0.83455349  0.44289954     0.14600
C1465       C  0.64872468  0.79698347  0.32539070     0.30000
C1466       C  0.67833730  0.82513169  0.32666531    -0.36300
C1467       C  0.69006387  0.83549472  0.34632487     0.16000
C1468       C  0.67397594  0.81937436  0.36364851     0.21800
C1469       C  0.64438016  0.79109287  0.36236753    -0.34400
C1470       C  0.63254614  0.78080888  0.34268092     0.15900
O1471       O  0.63290022  0.78342448  0.30856102    -0.26400
C1472       C  0.60613309  0.75826462  0.31517241     0.05700
C1473       C  0.60467302  0.75550717  0.33625809    -0.31300
O1474       O  0.68879758  0.83434752  0.38047693    -0.23200
C1475       C  0.71470971  0.86040156  0.37376615    -0.03100
C1476       C  0.71668213  0.86216647  0.35266607    -0.17600
H1477       H  0.69108177  0.83837654  0.31327701     0.20400
H1478       H  0.63117058  0.77835986  0.37576902     0.18800
H1479       H  0.58565377  0.73754092  0.34551192     0.18700
H1480       H  0.73464247  0.88103700  0.34332938     0.14600
C1481       C  0.80170918  0.03232371  0.49503171     0.30000
C1482       C  0.81820740  0.06343822  0.50287423    -0.36300
C1483       C  0.82437188  0.06603175  0.52383156     0.16000
C1484       C  0.81514914  0.03969898  0.53615863     0.21800
C1485       C  0.79722189  0.00861506  0.52851005    -0.34400
C1486       C  0.79086537  0.00603737  0.50761288     0.15900
O1487       O  0.79964425  0.02464372  0.47564578    -0.26400
C1488       C  0.78637751  0.99300290  0.47579410     0.05700
C1489       C  0.78015226  0.98015043  0.49525573    -0.31300
O1490       O  0.82977156  0.04722613  0.55388865    -0.23200
C1491       C  0.84786223  0.07884980  0.55326811    -0.03100
C1492       C  0.84511787  0.09185414  0.53499509    -0.17600
H1493       H  0.82834103  0.08415831  0.49302572     0.20400
H1494       H  0.79147682  0.98790604  0.53779525     0.18800
H1495       H  0.77313975  0.95590301  0.49964451     0.18700
H1496       H  0.86016376  0.11599979  0.52955067     0.14600
C1497       C  0.48400274  0.95932624  0.52781796     0.30000
C1498       C  0.51540088  0.98484407  0.52587053    -0.36300
C1499       C  0.52294767  0.00135123  0.50729381     0.16000
C1500       C  0.50118171  0.99346042  0.49166530     0.21800
C1501       C  0.46979146  0.96791309  0.49360767    -0.34400
C1502       C  0.46228112  0.95129896  0.51215142     0.15900
O1503       O  0.47164507  0.94079910  0.54392798    -0.26400
C1504       C  0.44164925  0.92046864  0.53843988     0.05700
C1505       C  0.43456633  0.92590519  0.51882087    -0.31300
O1506       O  0.51356657  0.01196829  0.47554160    -0.23200
C1507       C  0.54368782  0.03197159  0.48094055    -0.03100
C1508       C  0.55077992  0.02644404  0.50053747    -0.17600
H1509       H  0.53275407  0.99136037  0.53797615     0.20400
H1510       H  0.45246113  0.96135507  0.48148494     0.18800
H1511       H  0.41204741  0.91327522  0.51077636     0.18700
H1512       H  0.57334933  0.03890686  0.50854593     0.14600
C1513       C  0.78307865  0.31960061  0.45404708     0.30000
C1514       C  0.77388134  0.29314654  0.44146328    -0.36300
C1515       C  0.75180741  0.26360026  0.44967682     0.16000
C1516       C  0.73971611  0.26014044  0.46908949     0.21800
C1517       C  0.74926722  0.28676998  0.48185580    -0.34400
C1518       C  0.77134888  0.31659268  0.47353666     0.15900
O1519       O  0.79993425  0.34943255  0.44821051    -0.26400
C1520       C  0.79966897  0.36616945  0.46411897     0.05700
C1521       C  0.78225344  0.34708760  0.48047026    -0.31300
O1522       O  0.71644820  0.23075811  0.47267685    -0.23200
C1523       C  0.71367482  0.21539201  0.45532273    -0.03100
C1524       C  0.73518000  0.23469214  0.44053575    -0.17600
H1525       H  0.78183184  0.29570849  0.42584760     0.20400
H1526       H  0.73876510  0.28460499  0.49671090     0.18800
H1527       H  0.77588559  0.35440048  0.49442523     0.18700
H1528       H  0.73646457  0.22895308  0.42480769     0.14600
C1529       C  0.70467893  0.05365696  0.42599939     0.30000
C1530       C  0.73410722  0.05749939  0.41873117    -0.36300
C1531       C  0.73278746  0.03081536  0.40888083     0.16000
C1532       C  0.70443188  0.00260145  0.40638094     0.21800
C1533       C  0.67533188  0.99888460  0.41345103    -0.34400
C1534       C  0.67675918  0.02511814  0.42339341     0.15900
O1535       O  0.69962812  0.07524513  0.43534605    -0.26400
C1536       C  0.66805999  0.05983831  0.43884201     0.05700
C1537       C  0.65300116  0.02859486  0.43181330    -0.31300
O1538       O  0.70868904  0.97938867  0.39948428    -0.23200
C1539       C  0.74021648  0.99244857  0.39723388    -0.03100
C1540       C  0.75652052  0.02467395  0.40262213    -0.17600
H1541       H  0.75648240  0.07935272  0.42104341     0.20400
H1542       H  0.65316400  0.97651727  0.41201355     0.18800
H1543       H  0.62765605  0.01134942  0.43186737     0.18700
H1544       H  0.78209022  0.03987573  0.40449794     0.14600
C1545       C  0.49970809  0.15287426  0.34660290     0.30000
C1546       C  0.51522080  0.16433926  0.36517267    -0.36300
C1547       C  0.51919972  0.14248317  0.37709847     0.16000
C1548       C  0.50902317  0.11148654  0.37112806     0.21800
C1549       C  0.49248566  0.09967115  0.35278209    -0.34400
C1550       C  0.48822372  0.12152358  0.34088490     0.15900
O1551       O  0.49600053  0.17003065  0.33239682    -0.26400
C1552       C  0.48139655  0.14928830  0.31755151     0.05700
C1553       C  0.47571696  0.11869970  0.32193861    -0.31300
O1554       O  0.52020616  0.09705144  0.38297737    -0.23200
C1555       C  0.53740637  0.11903392  0.39677738    -0.03100
C1556       C  0.53700845  0.14748159  0.39403710    -0.17600
H1557       H  0.52507689  0.18908055  0.36952176     0.20400
H1558       H  0.48513194  0.07573550  0.34759803     0.18800
H1559       H  0.46526063  0.09792069  0.31221802     0.18700
H1560       H  0.55108445  0.16989374  0.40188909     0.14600
C1561       C  0.32989484  0.77726719  0.06327045     0.30000
C1562       C  0.30231420  0.76762516  0.07507946    -0.36300
C1563       C  0.27389340  0.74258477  0.06734514     0.16000
C1564       C  0.27243487  0.72836100  0.04893205     0.21800
C1565       C  0.30009885  0.73839986  0.03688905    -0.34400
C1566       C  0.32885560  0.76319490  0.04486168     0.15900
O1567       O  0.35932273  0.79596363  0.06957056    -0.26400
C1568       C  0.37782610  0.79446053  0.05508283     0.05700
C1569       C  0.36017967  0.77442820  0.03918630    -0.31300
O1570       O  0.24421989  0.70277685  0.04590931    -0.23200
C1571       C  0.22760323  0.70052500  0.06266886    -0.03100
C1572       C  0.24490013  0.72472798  0.07648459    -0.17600
H1573       H  0.30347090  0.77722805  0.09009299     0.20400
H1574       H  0.29966217  0.72610282  0.02306821     0.18800
H1575       H  0.36893862  0.76613801  0.02678295     0.18700
H1576       H  0.23798596  0.72728820  0.09170954     0.14600
C1577       C  0.44791781  0.69616010  0.05670771     0.30000
C1578       C  0.43370478  0.67005532  0.04321473    -0.36300
C1579       C  0.42530934  0.63983780  0.05142263     0.16000
C1580       C  0.43086062  0.63596434  0.07149762     0.21800
C1581       C  0.44548497  0.66196514  0.08481590    -0.34400
C1582       C  0.45348434  0.69190168  0.07670515     0.15900
O1583       O  0.45413898  0.72570584  0.05298761    -0.26400
C1584       C  0.46369924  0.74047538  0.07085411     0.05700
C1585       C  0.46383563  0.72052205  0.08611052    -0.31300
O1586       O  0.41757919  0.60576720  0.07684519    -0.23200
C1587       C  0.40352346  0.58958545  0.06005343    -0.03100
C1588       C  0.40760465  0.60955389  0.04359662    -0.17600
H1589       H  0.42786226  0.67284598  0.02775673     0.20400
H1590       H  0.44850691  0.65873932  0.10077632     0.18800
H1591       H  0.46870292  0.72575464  0.10210666     0.18700
H1592       H  0.39654677  0.60287033  0.02878787     0.14600
C1593       C  0.52391938  0.81249277  0.21311308     0.30000
C1594       C  0.50293978  0.82024612  0.20310810    -0.36300
C1595       C  0.51162470  0.83216745  0.18339291     0.16000
C1596       C  0.53969261  0.83731330  0.17425379     0.21800
C1597       C  0.56134802  0.83057869  0.18460051    -0.34400
C1598       C  0.55219153  0.81768768  0.20423848     0.15900
O1599       O  0.51640754  0.79415221  0.22925817    -0.26400
C1600       C  0.54004608  0.78744640  0.23102196     0.05700
C1601       C  0.56344387  0.80197818  0.21609627    -0.31300
O1602       O  0.54071439  0.84433273  0.15474903    -0.23200
C1603       C  0.51280618  0.84325269  0.15149113    -0.03100
C1604       C  0.49387003  0.83591318  0.16874525    -0.17600
H1605       H  0.47977685  0.81415176  0.20943094     0.20400
H1606       H  0.58227119  0.83234671  0.17714723     0.18800
H1607       H  0.58284445  0.79738024  0.21259982     0.18700
H1608       H  0.46960953  0.83180578  0.16994642     0.14600
C1609       C  0.39935508  0.87073293  0.15913740     0.30000
C1610       C  0.39748583  0.87251413  0.18025855    -0.36300
C1611       C  0.36663322  0.85671346  0.18856665     0.16000
C1612       C  0.33929743  0.84107431  0.17687793     0.21800
C1613       C  0.34113687  0.83963023  0.15571420    -0.34400
C1614       C  0.37208669  0.85463426  0.14743943     0.15900
O1615       O  0.42571614  0.87848446  0.14884735    -0.26400
C1616       C  0.41529295  0.86696622  0.13040513     0.05700
C1617       C  0.38214519  0.85211337  0.12858926    -0.31300
O1618       O  0.31320451  0.82520202  0.18795024    -0.23200
C1619       C  0.32415911  0.83052694  0.20686830    -0.03100
C1620       C  0.35710788  0.84985669  0.20821141    -0.17600
H1621       H  0.41870504  0.88312838  0.18968823     0.20400
H1622       H  0.32008352  0.82562201  0.14653116     0.18800
H1623       H  0.36750658  0.83811364  0.11599384     0.18700
H1624       H  0.37195108  0.85644125  0.22166964     0.14600
C1625       C  0.98214784  0.08318024  0.13445970     0.30000
C1626       C  0.01056111  0.08767530  0.14369233    -0.36300
C1627       C  0.03866593  0.10329256  0.13184647     0.16000
C1628       C  0.03872345  0.11329758  0.11217859     0.21800
C1629       C  0.01068083  0.10973054  0.10323838    -0.34400
C1630       C  0.98286314  0.09466334  0.11514469     0.15900
O1631       O  0.95245210  0.06506980  0.14130260    -0.26400
C1632       C  0.93415511  0.06578783  0.12628664     0.05700
C1633       C  0.95201701  0.08400362  0.10982183    -0.31300
O1634       O  0.06643722  0.12319993  0.10286493    -0.23200
C1635       C  0.08479097  0.12027936  0.11686719    -0.03100
C1636       C  0.06884625  0.10827501  0.13525184    -0.17600
H1637       H  0.01047632  0.07800976  0.15854680     0.20400
H1638       H  0.01016919  0.11650008  0.08762574     0.18800
H1639       H  0.94338062  0.08600071  0.09503870     0.18700
H1640       H  0.07744582  0.10159748  0.14855973     0.14600
C1641       C  0.87417878  0.85573168  0.11655156     0.30000
C1642       C  0.85636879  0.86441927  0.10370015    -0.36300
C1643       C  0.85054310  0.88846153  0.11083639     0.16000
C1644       C  0.86094288  0.90246828  0.12958850     0.21800
C1645       C  0.87848329  0.89349034  0.14257354    -0.34400
C1646       C  0.88482583  0.86976818  0.13527379     0.15900
O1647       O  0.88641099  0.83762364  0.11139277    -0.26400
C1648       C  0.90488515  0.83950564  0.12699528     0.05700
C1649       C  0.90490332  0.85925145  0.14240022    -0.31300
O1650       O  0.85591342  0.92674988  0.13231080    -0.23200
C1651       C  0.84240626  0.92858680  0.11505216    -0.03100
C1652       C  0.83840385  0.90527583  0.10110969    -0.17600
H1653       H  0.84955085  0.85471202  0.08856263     0.20400
H1654       H  0.88830228  0.90565873  0.15677062     0.18800
H1655       H  0.92013108  0.86745741  0.15566841     0.18700
H1656       H  0.82993778  0.90256297  0.08562005     0.14600
C1657       C  0.68777766  0.95405298  0.08803839     0.30000
C1658       C  0.66463117  0.95494501  0.07557451    -0.36300
C1659       C  0.63585119  0.92633383  0.07350851     0.16000
C1660       C  0.62990840  0.89849344  0.08313309     0.21800
C1661       C  0.65361470  0.89745257  0.09540919    -0.34400
C1662       C  0.68277702  0.92639692  0.09748920     0.15900
O1663       O  0.71563982  0.97868648  0.09245853    -0.26400
C1664       C  0.72941092  0.96727883  0.10492504     0.05700
C1665       C  0.71014330  0.93459210  0.10859820    -0.31300
O1666       O  0.59950472  0.87592961  0.08134354    -0.23200
C1667       C  0.58616459  0.88950094  0.07016639    -0.03100
C1668       C  0.60786690  0.92080899  0.06490206    -0.17600
H1669       H  0.66837629  0.97689514  0.06859030     0.20400
H1670       H  0.64911486  0.87603523  0.10347691     0.18800
H1671       H  0.71547879  0.91926172  0.11790774     0.18700
H1672       H  0.60277376  0.93818619  0.05789672     0.14600
C1673       C  0.96252339  0.16643620  0.00454165     0.30000
C1674       C  0.93274788  0.15746760  0.01364531    -0.36300
C1675       C  0.92658037  0.14080523  0.03213364     0.16000
C1676       C  0.94845902  0.13385445  0.04110299     0.21800
C1677       C  0.97851823  0.14373841  0.03240814    -0.34400
C1678       C  0.98443127  0.15985682  0.01385172     0.15900
O1679       O  0.97078333  0.17665426  0.98567843    -0.26400
C1680       C  0.99830435  0.17668361  0.98302793     0.05700
C1681       C  0.00791148  0.16656562  0.00005191    -0.31300
O1682       O  0.93600743  0.11336170  0.05615892    -0.23200
C1683       C  0.90581376  0.10715793  0.05707916    -0.03100
C1684       C  0.89863188  0.12391566  0.04268680    -0.17600
H1685       H  0.91457555  0.16067140  0.00596991     0.20400
H1686       H  0.99494381  0.13668081  0.03870958     0.18800
H1687       H  0.02751027  0.16154823  0.00126527     0.18700
H1688       H  0.87539252  0.12113282  0.03902066     0.14600
C1689       C  0.77155704  0.94903142  0.01452712     0.30000
C1690       C  0.75256783  0.91822648  0.00647391    -0.36300
C1691       C  0.76377962  0.91153707  0.98840405     0.16000
C1692       C  0.79171349  0.93374964  0.97901234     0.21800
C1693       C  0.80998499  0.96464144  0.98663202    -0.34400
C1694       C  0.79886827  0.97125657  0.00457477     0.15900
O1695       O  0.76926207  0.95846709  0.03300798    -0.26400
C1696       C  0.79518882  0.98719004  0.03464899     0.05700
C1697       C  0.81418752  0.99628461  0.01735172    -0.31300
O1698       O  0.80062698  0.92143867  0.96429760    -0.23200
C1699       C  0.77799464  0.89096491  0.96388589    -0.03100
C1700       C  0.75415702  0.88338647  0.97841143    -0.17600
H1701       H  0.73201702  0.90000385  0.01456766     0.20400
H1702       H  0.83273593  0.98155875  0.97992342     0.18800
H1703       H  0.83804811  0.01650105  0.01557041     0.18700
H1704       H  0.73451120  0.86005344  0.98230429     0.14600
C1705       C  0.31806390  0.52570507  0.30947546     0.30000
C1706       C  0.34888207  0.53164074  0.30394175    -0.36300
C1707       C  0.37265795  0.56385638  0.30231714     0.16000
C1708       C  0.36632698  0.58844156  0.30578924     0.21800
C1709       C  0.33594517  0.58252304  0.31215402    -0.34400
C1710       C  0.31227842  0.55035662  0.31397908     0.15900
O1711       O  0.29130042  0.49832371  0.30723382    -0.26400
C1712       C  0.26795168  0.50515072  0.31077382     0.05700
C1713       C  0.27983615  0.53716263  0.31555220    -0.31300
O1714       O  0.39070790  0.61654053  0.30100846    -0.23200
C1715       C  0.41327466  0.61009759  0.29472603    -0.03100
C1716       C  0.40357395  0.57769655  0.29540287    -0.17600
H1717       H  0.35337331  0.51254253  0.29958923     0.20400
H1718       H  0.33052957  0.60167617  0.31410841     0.18800
H1719       H  0.26656406  0.54996711  0.31591574     0.18700
H1720       H  0.41676553  0.56601359  0.29054646     0.14600
C1721       C  0.22459860  0.60263264  0.29984624     0.30000
C1722       C  0.25083017  0.63262095  0.30419307    -0.36300
C1723       C  0.24401010  0.65740496  0.30727603     0.16000
C1724       C  0.21351153  0.65317934  0.30559757     0.21800
C1725       C  0.18697526  0.62276851  0.30193732    -0.34400
C1726       C  0.19374054  0.59771393  0.29925436     0.15900
O1727       O  0.22619693  0.57708747  0.29477909    -0.26400
C1728       C  0.19596516  0.55509137  0.29123496     0.05700
C1729       C  0.17448204  0.56636635  0.29396942    -0.31300
O1730       O  0.21367479  0.68065081  0.30445284    -0.23200
C1731       C  0.24451207  0.70275900  0.30610253    -0.03100
C1732       C  0.26429765  0.68942625  0.30821742    -0.17600
H1733       H  0.27514200  0.63672707  0.30401689     0.20400
H1734       H  0.16307134  0.61930475  0.29997443     0.18800
H1735       H  0.14885955  0.55382745  0.29148739     0.18700
H1736       H  0.29014146  0.70151443  0.30676229     0.14600
C1737       C  0.28801305  0.42277423  0.16982618     0.30000
C1738       C  0.25754604  0.40461129  0.17854796    -0.36300
C1739       C  0.25456736  0.41125598  0.19889367     0.16000
C1740       C  0.27987472  0.43447195  0.20980400     0.21800
C1741       C  0.31061960  0.45167129  0.20136205    -0.34400
C1742       C  0.31361285  0.44488558  0.18108614     0.15900
O1743       O  0.29461685  0.42473366  0.15027170    -0.26400
C1744       C  0.32501495  0.44773473  0.14911174     0.05700
C1745       C  0.33809463  0.46105510  0.16778297    -0.31300
O1746       O  0.27049523  0.44176393  0.22675782    -0.23200
C1747       C  0.23894359  0.42246527  0.22704187    -0.03100
C1748       C  0.22772656  0.40261417  0.21022060    -0.17600
H1749       H  0.23698105  0.38850304  0.16958781     0.20400
H1750       H  0.33013000  0.47105891  0.20942734     0.18800
H1751       H  0.36092929  0.48211616  0.17072044     0.18700
H1752       H  0.20307220  0.38774656  0.20555655     0.14600
C1753       C  0.11819850  0.49750473  0.15042626     0.30000
C1754       C  0.10689760  0.48365232  0.16957564    -0.36300
C1755       C  0.12819825  0.47830499  0.18131659     0.16000
C1756       C  0.15845484  0.48596629  0.17460891     0.21800
C1757       C  0.16926266  0.49867818  0.15525004    -0.34400
C1758       C  0.14806247  0.50408692  0.14356974     0.15900
O1759       O  0.10500367  0.51001231  0.13863671    -0.26400
C1760       C  0.12665784  0.52460444  0.12407285     0.05700
C1761       C  0.15356639  0.52104900  0.12616921    -0.31300
O1762       O  0.17562507  0.48206445  0.18871769    -0.23200
C1763       C  0.15599256  0.47140758  0.20455082    -0.03100
C1764       C  0.12609632  0.46833900  0.20089883    -0.17600
H1765       H  0.08408031  0.47946558  0.17546999     0.20400
H1766       H  0.19334377  0.50584294  0.15017217     0.18800
H1767       H  0.17575506  0.53289257  0.11765604     0.18700
H1768       H  0.10631568  0.46107948  0.21138950     0.14600
C1769       C  0.65941797  0.19939205  0.21609970     0.30000
C1770       C  0.62955600  0.17526217  0.22318775    -0.36300
C1771       C  0.60499878  0.18305808  0.22407332     0.16000
C1772       C  0.60962086  0.21263018  0.21839228     0.21800
C1773       C  0.63898337  0.23616843  0.21040552    -0.34400
C1774       C  0.66352081  0.22835260  0.20943412     0.15900
O1775       O  0.68695899  0.20005233  0.21879965    -0.26400
C1776       C  0.70910052  0.22951179  0.21344996     0.05700
C1777       C  0.69568777  0.24786478  0.20699445    -0.31300
O1778       O  0.58489135  0.21634245  0.22288966    -0.23200
C1779       C  0.56394277  0.18863926  0.23127202    -0.03100
C1780       C  0.57491422  0.16680153  0.23218504    -0.17600
H1781       H  0.62648266  0.15303946  0.22928981     0.20400
H1782       H  0.64316790  0.25984112  0.20674436     0.18800
H1783       H  0.70791659  0.27351311  0.20497046     0.18700
H1784       H  0.56306433  0.14309710  0.23874633     0.14600
C1785       C  0.82741297  0.16038380  0.19582737     0.30000
C1786       C  0.83280652  0.13434541  0.19352560    -0.36300
C1787       C  0.83027925  0.12260216  0.17364255     0.16000
C1788       C  0.82325058  0.13571493  0.15711002     0.21800
C1789       C  0.81766150  0.16153224  0.15943585    -0.34400
C1790       C  0.81997499  0.17310141  0.17927624     0.15900
O1791       O  0.82859735  0.17533749  0.21296560    -0.26400
C1792       C  0.82176328  0.19791806  0.20725282     0.05700
C1793       C  0.81611897  0.19743851  0.18646904    -0.31300
O1794       O  0.82185589  0.12090960  0.13992617    -0.23200
C1795       C  0.82777948  0.09772308  0.14549134    -0.03100
C1796       C  0.83313033  0.09763713  0.16630804    -0.17600
H1797       H  0.83842970  0.12386951  0.20633367     0.20400
H1798       H  0.81179249  0.17185127  0.14665176     0.18800
H1799       H  0.81024684  0.21302944  0.17784984     0.18700
H1800       H  0.83804897  0.08127309  0.17481225     0.14600
C1801       C  0.77921844  0.44038797  0.21294994     0.30000
C1802       C  0.80354663  0.43428215  0.21966631    -0.36300
C1803       C  0.79549358  0.40205216  0.22079994     0.16000
C1804       C  0.76543394  0.37761845  0.21577800     0.21800
C1805       C  0.74163230  0.38377154  0.20826294    -0.34400
C1806       C  0.74977950  0.41596071  0.20690550     0.15900
O1807       O  0.77892135  0.46738029  0.21551919    -0.26400
C1808       C  0.74917371  0.46051489  0.21074878     0.05700
C1809       C  0.73037407  0.42899413  0.20463049    -0.31300
O1810       O  0.76160601  0.34931561  0.22035873    -0.23200
C1811       C  0.78974347  0.35550329  0.22803128    -0.03100
C1812       C  0.81195132  0.38792795  0.22856324    -0.17600
H1813       H  0.82620422  0.45313734  0.22526049     0.20400
H1814       H  0.71760482  0.36467488  0.20514741     0.18800
H1815       H  0.70454497  0.41600609  0.20308463     0.18700
H1816       H  0.83593577  0.39937707  0.23476617     0.14600
C1817       C  0.02015869  0.38967463  0.25540238     0.30000
C1818       C  0.99704001  0.37779390  0.23988569    -0.36300
C1819       C  0.96493441  0.36073633  0.24615045     0.16000
C1820       C  0.95634929  0.35568906  0.26636349     0.21800
C1821       C  0.97944317  0.36842804  0.28190437    -0.34400
C1822       C  0.01159967  0.38558705  0.27562974     0.15900
O1823       O  0.05131421  0.40261540  0.25283771    -0.26400
C1824       C  0.06321480  0.40743489  0.27159058     0.05700
C1825       C  0.03959315  0.39763110  0.28648898    -0.31300
O1826       O  0.92543342  0.33611287  0.26884684    -0.23200
C1827       C  0.91383387  0.32880121  0.25002913    -0.03100
C1828       C  0.93730444  0.34372422  0.23521804    -0.17600
H1829       H  0.00373618  0.38020566  0.22402488     0.20400
H1830       H  0.97286323  0.36380762  0.29776956     0.18800
H1831       H  0.04236044  0.39678351  0.30274319     0.18700
H1832       H  0.93474126  0.34075429  0.21892648     0.14600
C1833       C  0.71283498  0.14762060  0.31730730     0.30000
C1834       C  0.70999435  0.13227001  0.33599232    -0.36300
C1835       C  0.68270315  0.12524192  0.34758998     0.16000
C1836       C  0.65974360  0.13263242  0.34107860     0.21800
C1837       C  0.66178668  0.14650308  0.32209704    -0.34400
C1838       C  0.68910651  0.15381382  0.31067363     0.15900
O1839       O  0.73929842  0.16276112  0.30636757    -0.26400
C1840       C  0.73223620  0.17864881  0.29263142     0.05700
C1841       C  0.70119650  0.17347772  0.29442890    -0.31300
O1842       O  0.63951684  0.12958186  0.35551342    -0.23200
C1843       C  0.64908703  0.11946084  0.37138012    -0.03100
C1844       C  0.67565917  0.11598523  0.36739620    -0.17600
H1845       H  0.72918432  0.12895819  0.34195335     0.20400
H1846       H  0.64488472  0.15403792  0.31745298     0.18800
H1847       H  0.69075807  0.18606193  0.28672550     0.18700
H1848       H  0.68956190  0.11065217  0.37805832     0.14600
C1849       C  0.85813183  0.34793403  0.33478365     0.30000
C1850       C  0.87845566  0.37845100  0.34266313    -0.36300
C1851       C  0.87304812  0.38326488  0.36295932     0.16000
C1852       C  0.84905654  0.35966938  0.37457127     0.21800
C1853       C  0.82957823  0.32888461  0.36694233    -0.34400
C1854       C  0.83508352  0.32404390  0.34673632     0.15900
O1855       O  0.85611799  0.33942362  0.31559080    -0.26400
C1856       C  0.83192013  0.30957930  0.31543037     0.05700
C1857       C  0.81803302  0.29867177  0.33433636    -0.31300
O1858       O  0.84428390  0.37066953  0.39170933    -0.23200
C1859       C  0.86593192  0.40153392  0.39137572    -0.03100
C1860       C  0.88482650  0.41069967  0.37396787    -0.17600
H1861       H  0.89578885  0.39767320  0.33324494     0.20400
H1862       H  0.80997343  0.31063606  0.37569334     0.18800
H1863       H  0.79696291  0.27621940  0.33804401     0.18700
H1864       H  0.90178159  0.43466378  0.36903543     0.14600
C1865       C  0.70207626  0.44299962  0.45510842     0.30000
C1866       C  0.67341833  0.43828159  0.44643910    -0.36300
C1867       C  0.64544427  0.41947940  0.45764470     0.16000
C1868       C  0.64524121  0.40565578  0.47606615     0.21800
C1869       C  0.67415072  0.41102449  0.48500935    -0.34400
C1870       C  0.70235167  0.43029421  0.47386956     0.15900
O1871       O  0.73038392  0.45669418  0.44613072    -0.26400
C1872       C  0.74940769  0.45341987  0.45944556     0.05700
C1873       C  0.73327919  0.43735392  0.47705145    -0.31300
O1874       O  0.61577305  0.38515262  0.48230918    -0.23200
C1875       C  0.59708329  0.38659406  0.46783380    -0.03100
C1876       C  0.61438637  0.40757891  0.45225950    -0.17600
H1877       H  0.67275067  0.44719163  0.43144715     0.20400
H1878       H  0.67451344  0.39960573  0.49910019     0.18800
H1879       H  0.74242617  0.42954280  0.48953926     0.18700
H1880       H  0.60535632  0.41108126  0.43798459     0.14600
C1881       C  0.55558681  0.19578078  0.47991042     0.30000
C1882       C  0.55139114  0.22045687  0.48792497    -0.36300
C1883       C  0.52990513  0.22728335  0.47748688     0.16000
C1884       C  0.51405592  0.21140065  0.46010020     0.21800
C1885       C  0.51716363  0.18582618  0.45261512    -0.34400
C1886       C  0.53820846  0.17865984  0.46326039     0.15900
O1887       O  0.57842675  0.18918187  0.48495233    -0.26400
C1888       C  0.57486897  0.16678235  0.47176029     0.05700
C1889       C  0.55006101  0.15924529  0.45809547    -0.31300
O1890       O  0.49977096  0.22535463  0.45078109    -0.23200
C1891       C  0.50577362  0.24995386  0.46269309    -0.03100
C1892       C  0.52408188  0.25203387  0.47961768    -0.17600
H1893       H  0.56563377  0.23489408  0.50049293     0.20400
H1894       H  0.50586249  0.17390133  0.43860737     0.18800
H1895       H  0.54410070  0.14436414  0.44477068     0.18700
H1896       H  0.53453113  0.27109550  0.49064475     0.14600
C1897       C  0.64730597  0.46246782  0.34488227     0.30000
C1898       C  0.64158346  0.44296854  0.36189171    -0.36300
C1899       C  0.61590205  0.43824558  0.37423472     0.16000
C1900       C  0.59675966  0.45155947  0.37021346     0.21800
C1901       C  0.60312774  0.47201498  0.35339004    -0.34400
C1902       C  0.62915272  0.47693938  0.34098911     0.15900
O1903       O  0.66816732  0.46736707  0.33042004    -0.26400
C1904       C  0.66400647  0.48580362  0.31716665     0.05700
C1905       C  0.64020582  0.49282204  0.32293544    -0.31300
O1906       O  0.57141579  0.44017811  0.38235737    -0.23200
C1907       C  0.57473878  0.41954165  0.39428196    -0.03100
C1908       C  0.60223569  0.41785631  0.38999224    -0.17600
H1909       H  0.65520348  0.43092271  0.36473022     0.20400
H1910       H  0.58793624  0.48203606  0.34965057     0.18800
H1911       H  0.63118321  0.50604389  0.31450143     0.18700
H1912       H  0.60957236  0.40172461  0.39638421     0.14600
C1913       C  0.41690842  0.23476008  0.32686610     0.30000
C1914       C  0.41238723  0.23337829  0.34797417    -0.36300
C1915       C  0.42657531  0.26275636  0.35811248     0.16000
C1916       C  0.44337407  0.29161972  0.34810224     0.21800
C1917       C  0.44736973  0.29301172  0.32698103    -0.34400
C1918       C  0.43389252  0.26363592  0.31690728     0.15900
O1919       O  0.41153707  0.21039390  0.31522490    -0.26400
C1920       C  0.42525086  0.22373742  0.29762060     0.05700
C1921       C  0.43944376  0.25679607  0.29780703    -0.31300
O1922       O  0.45871926  0.31573240  0.36065693    -0.23200
C1923       C  0.45165411  0.30221225  0.37891762    -0.03100
C1924       C  0.43184640  0.26932158  0.37829296    -0.17600
H1925       H  0.40125599  0.21091570  0.35612826     0.20400
H1926       H  0.46250035  0.31530478  0.31919880     0.18800
H1927       H  0.45521915  0.27345926  0.28647771     0.18700
H1928       H  0.42495211  0.25249780  0.39075297     0.14600
C1929       C  0.99814529  0.09453826  0.37159829     0.30000
C1930       C  0.96935624  0.06884798  0.36444164    -0.36300
C1931       C  0.94173783  0.06050431  0.37612376     0.16000
C1932       C  0.94234617  0.07603506  0.39382737     0.21800
C1933       C  0.97083362  0.10259616  0.40048520    -0.34400
C1934       C  0.99834578  0.11121544  0.38862947     0.15900
O1935       O  0.02743231  0.10222088  0.36547550    -0.26400
C1936       C  0.04677462  0.12496861  0.37830542     0.05700
C1937       C  0.02972959  0.13158564  0.39283227    -0.31300
O1938       O  0.91509747  0.06101764  0.40411981    -0.23200
C1939       C  0.89648329  0.03588456  0.39261764    -0.03100
C1940       C  0.91178793  0.03466715  0.37492406    -0.17600
H1941       H  0.96893361  0.05473396  0.35157595     0.20400
H1942       H  0.97201501  0.11423897  0.41473613     0.18800
H1943       H  0.03906823  0.14603632  0.40629736     0.18700
H1944       H  0.90311356  0.01573424  0.36379369     0.14600
C1945       C  0.15149092  0.33732658  0.33884787     0.30000
C1946       C  0.15145167  0.32800201  0.35908938    -0.36300
C1947       C  0.15318288  0.29999366  0.36194904     0.16000
C1948       C  0.15512961  0.28257454  0.34596403     0.21800
C1949       C  0.15486406  0.29172060  0.32573096    -0.34400
C1950       C  0.15280556  0.31953325  0.32287619     0.15900
O1951       O  0.15090650  0.36313652  0.33271879    -0.26400
C1952       C  0.15153571  0.36174887  0.31254476     0.05700
C1953       C  0.15255262  0.33500592  0.30555826    -0.31300
O1954       O  0.15689746  0.25740272  0.35206598    -0.23200
C1955       C  0.15579019  0.25844813  0.37223464    -0.03100
C1956       C  0.15342749  0.28444469  0.37926598    -0.17600
H1957       H  0.15030771  0.34172005  0.37172275     0.20400
H1958       H  0.15626347  0.27813852  0.31309899     0.18800
H1959       H  0.15389844  0.32847781  0.29002801     0.18700
H1960       H  0.15210716  0.29090402  0.39481473     0.14600
C1961       C  0.13051359  0.02448963  0.39623414     0.30000
C1962       C  0.12945582  0.99764477  0.40529026    -0.36300
C1963       C  0.11021453  0.96837096  0.39564550     0.16000
C1964       C  0.09277527  0.96534508  0.37831769     0.21800
C1965       C  0.09498248  0.99252708  0.36871585    -0.34400
C1966       C  0.11454926  0.02201379  0.37830266     0.15900
O1967       O  0.14243009  0.05297160  0.40459793    -0.26400
C1968       C  0.13484315  0.06939127  0.39163253     0.05700
C1969       C  0.11785054  0.05146054  0.37485096    -0.31300
O1970       O  0.07163536  0.93514097  0.37427180    -0.23200
C1971       C  0.07631673  0.91874980  0.38894747    -0.03100
C1972       C  0.10012691  0.93833513  0.40247505    -0.17600
H1973       H  0.14074042  0.99908970  0.41977678     0.20400
H1974       H  0.08050279  0.99058788  0.35562744     0.18800
H1975       H  0.10643406  0.05809876  0.36310593     0.18700
H1976       H  0.10633682  0.93155858  0.41671105     0.14600
C1977       C  0.34929005  0.25745620  0.43511319     0.30000
C1978       C  0.32382191  0.22783242  0.42820531    -0.36300
C1979       C  0.29727723  0.22858007  0.41917261     0.16000
C1980       C  0.29631925  0.25660145  0.41720033     0.21800
C1981       C  0.32138472  0.28572017  0.42399780    -0.34400
C1982       C  0.34734841  0.28490437  0.43299997     0.15900
O1983       O  0.37711290  0.26326924  0.44332571    -0.26400
C1984       C  0.39267975  0.29485615  0.44661010     0.05700
C1985       C  0.37492328  0.30909085  0.44046595    -0.31300
O1986       O  0.26895767  0.25235088  0.40993073    -0.23200
C1987       C  0.25146221  0.22113079  0.40674889    -0.03100
C1988       C  0.26791421  0.20490956  0.41221162    -0.17600
H1989       H  0.32453171  0.20583244  0.42985768     0.20400
H1990       H  0.32045289  0.30764960  0.42264476     0.18800
H1991       H  0.38216026  0.33423071  0.44041892     0.18700
H1992       H  0.25862335  0.17938666  0.41277025     0.14600
C1993       C  0.18783205  0.14906253  0.50284778     0.30000
C1994       C  0.21064518  0.14572986  0.51438580    -0.36300
C1995       C  0.19910523  0.12709854  0.53206835     0.16000
C1996       C  0.16739851  0.11310901  0.53799931     0.21800
C1997       C  0.14482961  0.11683312  0.52671123    -0.34400
C1998       C  0.15621516  0.13492868  0.50899623     0.15900
O1999       O  0.19225197  0.16200537  0.48459544    -0.26400
C2000       C  0.16301285  0.15571206  0.47915222     0.05700
C2001       C  0.13978237  0.13904875  0.49371848    -0.31300
O2002       O  0.16065210  0.09313656  0.55319612    -0.23200
C2003       C  0.18828040  0.09423177  0.55723228    -0.03100
C2004       C  0.21324981  0.11523512  0.54472158    -0.14000
H2005       H  0.23510849  0.15518005  0.50925303     0.20400
H2006       H  0.11965861  0.10454047  0.53069836     0.18800
H2007       H  0.11415636  0.12964251  0.49262246     0.18700
H2008       H  0.23723963  0.11859168  0.54367726     0.14600
C2009       C  0.00998342  0.17599832  0.50752737     0.30000
C2010       C  0.03747437  0.19802757  0.49692735    -0.36300
C2011       C  0.04319237  0.18746707  0.47837090     0.16000
C2012       C  0.02285747  0.15750716  0.47065152     0.21800
C2013       C  0.99508818  0.13582620  0.48099604    -0.34400
C2014       C  0.98985156  0.14605729  0.49970787     0.15900
O2015       O  0.00221978  0.17918907  0.52624759    -0.26400
C2016       C  0.97710850  0.15082201  0.53035852     0.05700
C2017       C  0.96834127  0.12932944  0.51448052    -0.31300
O2018       O  0.03522867  0.15045330  0.45504853    -0.23200
C2019       C  0.06388758  0.17606289  0.45266633    -0.03100
C2020       C  0.07000518  0.20012845  0.46655158    -0.17600
H2021       H  0.05446921  0.22079797  0.50341791     0.20400
H2022       H  0.98009183  0.11168243  0.47564319     0.18800
H2023       H  0.94979310  0.10451626  0.51427879     0.18700
H2024       H  0.09235170  0.22191952  0.46914564     0.14600
C2025       C  0.64873723  0.19177470  0.95857046     0.30000
C2026       C  0.67517243  0.19980760  0.94588346    -0.36300
C2027       C  0.70434404  0.22570958  0.95205200     0.16000
C2028       C  0.70750326  0.24201059  0.96985838     0.21800
C2029       C  0.68106049  0.23373725  0.98269465    -0.34400
C2030       C  0.65160130  0.20825778  0.97625035     0.15900
O2031       O  0.61868615  0.17237893  0.95369855    -0.26400
C2032       C  0.60172660  0.17597367  0.96840787     0.05700
C2033       C  0.62098043  0.19814137  0.98291683    -0.31300
O2034       O  0.73611370  0.26741576  0.97163850    -0.23200
C2035       C  0.75133370  0.26766352  0.95465536    -0.03100
C2036       C  0.73272337  0.24224849  0.94188366    -0.17600
H2037       H  0.67259028  0.18827310  0.93138289     0.20400
H2038       H  0.68288019  0.24769065  0.99598459     0.18800
H2039       H  0.61355674  0.20827217  0.99499334     0.18700
H2040       H  0.73858199  0.23772621  0.92683089     0.14600
C2041       C  0.49605094  0.01366700  0.00724627     0.30000
C2042       C  0.49241095  0.00322859  0.02753924    -0.36300
C2043       C  0.49378748  0.97512699  0.03104591     0.16000
C2044       C  0.49838078  0.95848717  0.01561204     0.21800
C2045       C  0.50225345  0.96905237  0.99537285    -0.34400
C2046       C  0.50098485  0.99716385  0.99187713     0.15900
O2047       O  0.49474681  0.03881938  0.00046021    -0.26400
C2048       C  0.49912689  0.03860053  0.98048976     0.05700
C2049       C  0.50325649  0.01325007  0.97430299    -0.31300
O2050       O  0.49843431  0.93261948  0.02218363    -0.23200
C2051       C  0.49386389  0.93254588  0.04212896    -0.03100
C2052       C  0.49087317  0.95852399  0.04852932    -0.17600
H2053       H  0.48849943  0.01597485  0.03970898     0.20400
H2054       H  0.50579845  0.95610831  0.98317043     0.18800
H2055       H  0.50669457  0.00718261  0.95905059     0.18700
H2056       H  0.48700669  0.96423592  0.06378007     0.14600
C2057       C  0.54139739  0.32602182  0.95353148     0.30000
C2058       C  0.52415872  0.29978079  0.94069817    -0.36300
C2059       C  0.51818676  0.27006163  0.94814335     0.16000
C2060       C  0.52795297  0.26629455  0.96714703     0.21800
C2061       C  0.54505468  0.29262195  0.98009022    -0.34400
C2062       C  0.55152332  0.32255933  0.97249187     0.15900
O2063       O  0.55372245  0.35610861  0.94814761    -0.26400
C2064       C  0.57181238  0.37253860  0.96380984     0.05700
C2065       C  0.57144189  0.35288532  0.97949134    -0.31300
O2066       O  0.52284423  0.23701872  0.97015583    -0.23200
C2067       C  0.50986672  0.22186458  0.95282684    -0.03100
C2068       C  0.50643043  0.24133543  0.93857306    -0.17600
H2069       H  0.51785915  0.30271666  0.92537005     0.20400
H2070       H  0.55447846  0.29020739  0.99450834     0.18800
H2071       H  0.58648228  0.35972433  0.99285364     0.18700
H2072       H  0.49862729  0.23580006  0.92296396     0.14600
C2073       C  0.60609400  0.10548175  0.87190471     0.30000
C2074       C  0.60913034  0.09123230  0.85407246    -0.36300
C2075       C  0.63580184  0.11037666  0.84183071     0.16000
C2076       C  0.65788925  0.14137598  0.84691126     0.21800
C2077       C  0.65553674  0.15515759  0.86504868    -0.34400
C2078       C  0.62887726  0.13612440  0.87718320     0.15900
O2079       O  0.58032969  0.09426382  0.88347827    -0.26400
C2080       C  0.58679295  0.11795722  0.89633462     0.05700
C2081       C  0.61690710  0.14438458  0.89330995    -0.31300
O2082       O  0.67777827  0.15674318  0.83197466    -0.23200
C2083       C  0.66888350  0.13525601  0.81725293    -0.03100
C2084       C  0.64305023  0.10581286  0.82250375    -0.17600
H2085       H  0.59065004  0.06787480  0.84926244     0.20400
H2086       H  0.67187936  0.17991011  0.86860828     0.18800
H2087       H  0.62685916  0.16762111  0.90035806     0.18700
H2088       H  0.62968532  0.08530315  0.81283938     0.14600
C2089       C  0.48375761  0.13757909  0.83894342     0.30000
C2090       C  0.49679427  0.15260191  0.82043073    -0.36300
C2091       C  0.47680018  0.15881488  0.80811441     0.16000
C2092       C  0.44588923  0.15067971  0.81356485     0.21800
C2093       C  0.43224992  0.13413025  0.83173379    -0.34400
C2094       C  0.45242504  0.12806375  0.84418987     0.15900
O2095       O  0.50021232  0.13512862  0.85408051    -0.26400
C2096       C  0.47915486  0.12325605  0.86913612     0.05700
C2097       C  0.44883611  0.11794436  0.86390005    -0.31300
O2098       O  0.43414854  0.16491450  0.80203178    -0.23200
C2099       C  0.45778799  0.18213708  0.78905670    -0.03100
C2100       C  0.48458068  0.17863033  0.79188853    -0.17600
H2101       H  0.52181048  0.16162600  0.81678599     0.20400
H2102       H  0.40871733  0.12913521  0.83671102     0.18800
H2103       H  0.42836893  0.11098521  0.87375105     0.18700
H2104       H  0.50794378  0.19219054  0.78487811     0.14600
C2105       C  0.00016488  0.87445495  0.88070922     0.30000
C2106       C  0.97265694  0.87426870  0.87318882    -0.36300
C2107       C  0.94415027  0.85582090  0.88414272     0.16000
C2108       C  0.94276585  0.83899387  0.90147266     0.21800
C2109       C  0.96990293  0.83806275  0.90845525    -0.34400
C2110       C  0.99827433  0.85618023  0.89738553     0.15900
O2111       O  0.03015853  0.89459126  0.87537824    -0.26400
C2112       C  0.04759891  0.88846026  0.88848679     0.05700
C2113       C  0.02888107  0.86459003  0.90229904    -0.31300
O2114       O  0.91499356  0.82747209  0.91106252    -0.23200
C2115       C  0.89807555  0.83636471  0.89942862    -0.03100
C2116       C  0.91492932  0.85376439  0.88240692    -0.17600
H2117       H  0.97384711  0.88933791  0.86062165     0.20400
H2118       H  0.96951582  0.82597639  0.92241674     0.18800
H2119       H  0.03690469  0.85777588  0.91580101     0.18700
H2120       H  0.90755258  0.86544901  0.87129285     0.14600
C2121       C  0.10125033  0.10007193  0.89902392     0.30000
C2122       C  0.11872477  0.09111157  0.91204835    -0.36300
C2123       C  0.12212430  0.06508169  0.90583346     0.16000
C2124       C  0.10957993  0.04926114  0.88783796     0.21800
C2125       C  0.09183454  0.05807389  0.87487657    -0.34400
C2126       C  0.08817167  0.08399233  0.88118852     0.15900
O2127       O  0.09197303  0.12099535  0.90323580    -0.26400
C2128       C  0.07293849  0.11890428  0.88787759     0.05700
C2129       C  0.06951910  0.09599345  0.87370113    -0.31300
O2130       O  0.11437592  0.02471202  0.88542919    -0.23200
C2131       C  0.12995232  0.02453764  0.90216403    -0.03100
C2132       C  0.13521902  0.04903307  0.91549852    -0.17600
H2133       H  0.12776735  0.10272402  0.92650400     0.20400
H2134       H  0.08060113  0.04482499  0.86121826     0.18800
H2135       H  0.05291945  0.08692489  0.86111467     0.18700
H2136       H  0.14620566  0.05372359  0.93036231     0.14600
C2137       C  0.29637457  0.02972821  0.92158748     0.30000
C2138       C  0.31813245  0.05076901  0.93615966    -0.36300
C2139       C  0.34959583  0.05551656  0.93540637     0.16000
C2140       C  0.35855611  0.04023976  0.92134386     0.21800
C2141       C  0.33702718  0.01948964  0.90681084    -0.34400
C2142       C  0.30587767  0.01498105  0.90747578     0.15900
O2143       O  0.26521976  0.01951173  0.92063168    -0.26400
C2144       C  0.25475923  0.99835463  0.90549606     0.05700
C2145       C  0.27911230  0.99449305  0.89691487    -0.31300
O2146       O  0.38850139  0.04703858  0.92348763    -0.23200
C2147       C  0.39952333  0.06724660  0.93903981    -0.03100
C2148       C  0.37633088  0.07359116  0.94712384    -0.17600
H2149       H  0.31081919  0.06198844  0.94758322     0.20400
H2150       H  0.34394665  0.00709951  0.89599550     0.18800
H2151       H  0.27685285  0.97699393  0.88579782     0.18700
H2152       H  0.37871984  0.08896373  0.95972572     0.14600
C2153       C  0.19017728  0.98854309  0.01170064     0.30000
C2154       C  0.18006646  0.99016731  0.03137636    -0.36300
C2155       C  0.19547501  0.02021576  0.04055222     0.16000
C2156       C  0.21976546  0.04687229  0.03120204     0.21800
C2157       C  0.23076094  0.04496778  0.01175083    -0.34400
C2158       C  0.21490141  0.01492096  0.00237946     0.15900
O2159       O  0.17464499  0.96466343  0.99908001    -0.26400
C2160       C  0.18984481  0.97546149  0.98152515     0.05700
C2161       C  0.21527740  0.00652723  0.98263144    -0.31300
O2162       O  0.22683323  0.07342762  0.04099407    -0.23200
C2163       C  0.20673567  0.06361258  0.05671619    -0.03100
C2164       C  0.18695113  0.03070285  0.05730205    -0.17600
H2165       H  0.15946028  0.97010304  0.03825013     0.20400
H2166       H  0.24834390  0.06602250  0.00374459     0.18800
H2167       H  0.22926896  0.02185031  0.97021850     0.18700
H2168       H  0.16694461  0.01692402  0.06738731     0.14600
C2169       C  0.06677841  0.82216703  0.98831568     0.30000
C2170       C  0.06471133  0.81031317  0.00813071    -0.36300
C2171       C  0.03444028  0.79695825  0.01748253     0.16000
C2172       C  0.00804521  0.79522365  0.00786778     0.21800
C2173       C  0.00989261  0.80618694  0.98795396    -0.34400
C2174       C  0.04007828  0.81977340  0.97874787     0.15900
O2175       O  0.09349582  0.84060334  0.97820433    -0.26400
C2176       C  0.08365632  0.85008821  0.96203843     0.05700
C2177       C  0.05064021  0.83755462  0.96156403    -0.31300
O2178       O  0.98371728  0.78706624  0.02028442    -0.23200
C2179       C  0.99420817  0.78281355  0.03804103    -0.03100
C2180       C  0.02562127  0.78860694  0.03726057    -0.17600
H2181       H  0.08574249  0.81370404  0.01628942     0.20400
H2182       H  0.98982188  0.80664788  0.98077940     0.18800
H2183       H  0.03684805  0.84363536  0.95130283     0.18700
H2184       H  0.04077376  0.78999799  0.04983978     0.14600
C2185       C  0.31306532  0.75016526  0.80704951     0.30000
C2186       C  0.34139163  0.75344072  0.81557783    -0.36300
C2187       C  0.36992639  0.77323549  0.80497383     0.16000
C2188       C  0.37058368  0.78833065  0.78698770     0.21800
C2189       C  0.34249450  0.78618873  0.77896218    -0.34400
C2190       C  0.31408464  0.76683228  0.78973131     0.15900
O2191       O  0.28342098  0.72869345  0.81225652    -0.26400
C2192       C  0.26523386  0.73243265  0.79844619     0.05700
C2193       C  0.28315692  0.75596479  0.78423120    -0.31300
O2194       O  0.39879012  0.80098270  0.77781184    -0.23200
C2195       C  0.41672464  0.79473073  0.79039615    -0.03100
C2196       C  0.40006725  0.77787037  0.80762044    -0.17600
H2197       H  0.34098359  0.73969775  0.82870655     0.20400
H2198       H  0.34239991  0.79691597  0.76452789     0.18800
H2199       H  0.27475141  0.76143851  0.77037784     0.18700
H2200       H  0.40814312  0.76764428  0.81931429     0.14600
C2201       C  0.15443349  0.78331105  0.83477649     0.30000
C2202       C  0.15108271  0.78957262  0.85519088    -0.36300
C2203       C  0.15446558  0.81965088  0.85932750     0.16000
C2204       C  0.16061086  0.84203703  0.84436745     0.21800
C2205       C  0.16393455  0.83574925  0.82389028    -0.34400
C2206       C  0.16069593  0.80564353  0.81975484     0.15900
O2207       O  0.15241018  0.75681021  0.82768218    -0.26400
C2208       C  0.15752045  0.76201420  0.80780771     0.05700
C2209       C  0.16285308  0.79210608  0.80196835    -0.31300
O2210       O  0.16313577  0.86870191  0.85169541    -0.23200
C2211       C  0.15862254  0.86340564  0.87163517    -0.03100
C2212       C  0.15307051  0.83319475  0.87722409    -0.17600
H2213       H  0.14633852  0.77221222  0.86705978     0.20400
H2214       H  0.16890265  0.85319099  0.81204100     0.18800
H2215       H  0.16760712  0.80243594  0.78689491     0.18700
H2216       H  0.14879628  0.82281354  0.89227463     0.14600
C2217       C  0.20966374  0.52114861  0.78630103     0.30000
C2218       C  0.19244969  0.53014259  0.77316203    -0.36300
C2219       C  0.18541840  0.55329754  0.78043640     0.16000
C2220       C  0.19419501  0.56636830  0.79955017     0.21800
C2221       C  0.21107929  0.55695733  0.81288000    -0.34400
C2222       C  0.21859682  0.53401639  0.80545626     0.15900
O2223       O  0.22288231  0.50390209  0.78114810    -0.26400
C2224       C  0.24031994  0.50507565  0.79717241     0.05700
C2225       C  0.23859196  0.52351815  0.81288611    -0.31300
O2226       O  0.18866999  0.59043374  0.80223450    -0.23200
C2227       C  0.17641464  0.59292547  0.78458048    -0.03100
C2228       C  0.17375366  0.57029395  0.77049696    -0.17600
H2229       H  0.18702675  0.52141360  0.75773586     0.20400
H2230       H  0.21967836  0.56834455  0.82743443     0.18800
H2231       H  0.25272794  0.53103153  0.82663051     0.18700
H2232       H  0.16675228  0.56837200  0.75471702     0.14600
C2233       C  0.32196905  0.82227059  0.67856944     0.30000
C2234       C  0.31882148  0.80702519  0.69718781    -0.36300
C2235       C  0.28992907  0.79700271  0.70744001     0.16000
C2236       C  0.26570668  0.80178219  0.69998993     0.21800
C2237       C  0.26929500  0.81802405  0.68158739    -0.34400
C2238       C  0.29828336  0.82799019  0.67122310     0.15900
O2239       O  0.34432422  0.82817304  0.66505061    -0.26400
C2240       C  0.33541734  0.83850616  0.64896556     0.05700
C2241       C  0.30705580  0.83916939  0.65188486    -0.31300
O2242       O  0.23881099  0.78567097  0.71032001    -0.23200
C2243       C  0.24605992  0.77054564  0.72451085    -0.03100
C2244       C  0.27764223  0.77705759  0.72356612    -0.17600
H2245       H  0.33652368  0.80095041  0.70246072     0.20400
H2246       H  0.24987898  0.82038385  0.67502321     0.18800
H2247       H  0.29309214  0.84342831  0.64066107     0.18700
H2248       H  0.28885918  0.76595507  0.73208685     0.14600
C2249       C  0.13956958  0.60599481  0.64035859     0.30000
C2250       C  0.15967582  0.63488342  0.65001627    -0.36300
C2251       C  0.14803929  0.64054251  0.66807473     0.16000
C2252       C  0.11823804  0.61961641  0.67599176     0.21800
C2253       C  0.09755677  0.59108793  0.66588445    -0.34400
C2254       C  0.10951862  0.58506033  0.64794112     0.15900
O2255       O  0.14851694  0.59338511  0.62584392    -0.26400
C2256       C  0.12396996  0.56401619  0.62391516     0.05700
C2257       C  0.09871317  0.55760881  0.63703176    -0.31300
O2258       O  0.11452599  0.62728515  0.69467210    -0.23200
C2259       C  0.14231047  0.65335999  0.69859309    -0.03100
C2260       C  0.16389509  0.66265372  0.68259867    -0.17600
H2261       H  0.18397251  0.65040156  0.64486720     0.20400
H2262       H  0.07502584  0.57350742  0.67250757     0.18800
H2263       H  0.07741749  0.53490465  0.63985494     0.18700
H2264       H  0.18876632  0.68125741  0.68248002     0.14600
C2265       C  0.60617815  0.38861112  0.71583860     0.30000
C2266       C  0.63278553  0.39784387  0.70297766    -0.36300
C2267       C  0.66190009  0.42363568  0.70959580     0.16000
C2268       C  0.66427028  0.43951048  0.72747534     0.21800
C2269       C  0.63768270  0.43052485  0.74017914    -0.34400
C2270       C  0.60889319  0.40431725  0.73383789     0.15900
O2271       O  0.57787978  0.36281298  0.71389012    -0.26400
C2272       C  0.56241759  0.36176498  0.73094218     0.05700
C2273       C  0.58061352  0.38695389  0.74395930    -0.31300
O2274       O  0.69415239  0.45895720  0.73262377    -0.23200
C2275       C  0.71150344  0.45593655  0.71794658    -0.03100
C2276       C  0.69268580  0.43428284  0.70308383    -0.17600
H2277       H  0.63140301  0.38431316  0.68955134     0.20400
H2278       H  0.63996033  0.44152574  0.75484880     0.18800
H2279       H  0.57457164  0.39083770  0.75912413     0.18700
H2280       H  0.70048165  0.42447628  0.69101027     0.14600
C2281       C  0.79580469  0.35954937  0.73151724     0.30000
C2282       C  0.79584577  0.33205409  0.73852419    -0.36300
C2283       C  0.77849931  0.30440072  0.72684218     0.16000
C2284       C  0.76149905  0.30347357  0.70971339     0.21800
C2285       C  0.76252030  0.33129367  0.70224900    -0.34400
C2286       C  0.78044432  0.35913154  0.71369958     0.15900
O2287       O  0.80712376  0.38692933  0.74132074    -0.26400
C2288       C  0.79970375  0.40456906  0.72930197     0.05700
C2289       C  0.78333039  0.38855561  0.71186759    -0.31300
O2290       O  0.74160535  0.27396258  0.70373181    -0.23200
C2291       C  0.74676959  0.25582163  0.71677992    -0.03100
C2292       C  0.76974456  0.27365795  0.73127517    -0.17600
H2293       H  0.80684420  0.33169567  0.75279568     0.20400
H2294       H  0.74853052  0.33083781  0.68923754     0.18800
H2295       H  0.77280064  0.39662543  0.70036610     0.18700
H2296       H  0.77565511  0.26502382  0.74486632     0.14600
C2297       C  0.01661439  0.59630971  0.76334264     0.30000
C2298       C  0.99142457  0.56720317  0.75584561    -0.36300
C2299       C  0.96371759  0.56779447  0.74910930     0.16000
C2300       C  0.96139764  0.59520407  0.74980957     0.21800
C2301       C  0.98620623  0.62389291  0.75724967    -0.34400
C2302       C  0.01341998  0.62321053  0.76400157     0.15900
O2303       O  0.04558011  0.60231048  0.76919152    -0.26400
C2304       C  0.06064440  0.63337134  0.77377755     0.05700
C2305       C  0.04151463  0.64725156  0.77089300    -0.31300
O2306       O  0.93321393  0.59058864  0.74419130    -0.23200
C2307       C  0.91666217  0.55979480  0.73958662    -0.03100
C2308       C  0.93446401  0.54419860  0.74221842    -0.17600
H2309       H  0.99331426  0.54574443  0.75524790     0.20400
H2310       H  0.98429503  0.64535167  0.75786846     0.18800
H2311       H  0.04829792  0.67221114  0.77214387     0.18700
H2312       H  0.92625764  0.51893274  0.74098826     0.14600
C2313       C  0.86875640  0.49206811  0.83544673     0.30000
C2314       C  0.88882207  0.48205023  0.84453449    -0.36300
C2315       C  0.88047475  0.46970390  0.86431701     0.16000
C2316       C  0.85428906  0.46761015  0.87444815     0.21800
C2317       C  0.83488666  0.47848109  0.86562941    -0.34400
C2318       C  0.84297462  0.49040933  0.84585114     0.15900
O2319       O  0.86898507  0.49959890  0.81612793    -0.26400
C2320       C  0.84318860  0.50298262  0.81433048     0.05700
C2321       C  0.82613807  0.49751272  0.83227046    -0.31300
O2322       O  0.84726577  0.45017314  0.89103724    -0.23200
C2323       C  0.86929650  0.44110625  0.89175618    -0.03100
C2324       C  0.89096005  0.45296878  0.87568507    -0.17600
H2325       H  0.90797366  0.48148711  0.83618568     0.20400
H2326       H  0.81332505  0.47526824  0.87300865     0.18800
H2327       H  0.80318237  0.49626000  0.83449930     0.18700
H2328       H  0.90906451  0.44675697  0.87161441     0.14600
C2329       C  0.71378687  0.52961841  0.81433555     0.30000
C2330       C  0.71059044  0.54316976  0.83245074    -0.36300
C2331       C  0.68232378  0.52466319  0.84355554     0.16000
C2332       C  0.65878083  0.49505397  0.83704595     0.21800
C2333       C  0.66135386  0.48219355  0.81860823    -0.34400
C2334       C  0.68967784  0.50038667  0.80772857     0.15900
O2335       O  0.74051899  0.53948073  0.80387113    -0.26400
C2336       C  0.73332822  0.51622618  0.79050705     0.05700
C2337       C  0.70187508  0.49160471  0.79201871    -0.31300
O2338       O  0.63753881  0.47915275  0.85122609    -0.23200
C2339       C  0.64702842  0.49888215  0.86693099    -0.03100
C2340       C  0.67464407  0.52772743  0.86308203    -0.17600
H2341       H  0.73004486  0.56508644  0.83842645     0.20400
H2342       H  0.64391892  0.45822325  0.81407029     0.18800
H2343       H  0.69081061  0.46886835  0.78425486     0.18700
H2344       H  0.68893345  0.54637500  0.87380243     0.14600
C2345       C  0.04503972  0.89414245  0.63597096     0.30000
C2346       C  0.01952196  0.88623702  0.64956388    -0.36300
C2347       C  0.98921356  0.86179351  0.64344458     0.16000
C2348       C  0.98459562  0.84593789  0.62529512     0.21800
C2349       C  0.01015372  0.85366636  0.61178068    -0.34400
C2350       C  0.04028355  0.87854088  0.61770415     0.15900
O2351       O  0.07420426  0.91877830  0.63756996    -0.26400
C2352       C  0.08840629  0.91933308  0.62005728     0.05700
C2353       C  0.06837100  0.89478307  0.60705635    -0.31300
O2354       O  0.95398551  0.82776807  0.62100497    -0.23200
C2355       C  0.93840459  0.83153749  0.63657472    -0.03100
C2356       C  0.95925701  0.85260916  0.65103350    -0.17600
H2357       H  0.02267942  0.89979255  0.66327399     0.20400
H2358       H  0.00632562  0.84271203  0.59698075     0.18800
H2359       H  0.07304395  0.89085528  0.59156050     0.18700
H2360       H  0.95332898  0.86302713  0.66369376     0.14600
C2361       C  0.82478560  0.65811206  0.65641946     0.30000
C2362       C  0.82619262  0.62978793  0.65803818    -0.36300
C2363       C  0.82231491  0.61690931  0.67765893     0.16000
C2364       C  0.81727915  0.63075124  0.69457097     0.21800
C2365       C  0.81571335  0.65895660  0.69294095    -0.34400
C2366       C  0.81964973  0.67184389  0.67334873     0.15900
O2367       O  0.82820334  0.67462630  0.63962452    -0.26400
C2368       C  0.82507938  0.69915723  0.64596878     0.05700
C2369       C  0.81972073  0.69855430  0.66677566    -0.31300
O2370       O  0.81498720  0.61494998  0.71148604    -0.23200
C2371       C  0.81869650  0.59070654  0.70529534    -0.03100
C2372       C  0.82325127  0.59073129  0.68441482    -0.17600
H2373       H  0.83032402  0.61872218  0.64496977     0.20400
H2374       H  0.81197094  0.67023505  0.70604521     0.18800
H2375       H  0.81647022  0.71551819  0.67578087     0.18700
H2376       H  0.82714180  0.57405507  0.67554339     0.14600
C2377       C  0.88492759  0.98973936  0.64442032     0.30000
C2378       C  0.89201275  0.96570064  0.64987432    -0.36300
C2379       C  0.87215828  0.93546215  0.64147230     0.16000
C2380       C  0.84711907  0.92927703  0.62851919     0.21800
C2381       C  0.83895308  0.95276080  0.62401918    -0.34400
C2382       C  0.85864016  0.98290191  0.63249166     0.15900
O2383       O  0.90479852  0.02075747  0.64597472    -0.26400
C2384       C  0.89093575  0.03389967  0.63506597     0.05700
C2385       C  0.86159346  0.01133395  0.62700962    -0.31300
O2386       O  0.83507410  0.90108117  0.61975583    -0.23200
C2387       C  0.85211845  0.88879691  0.62761587    -0.03100
C2388       C  0.87527170  0.90890283  0.64133388    -0.17600
H2389       H  0.91335111  0.97091476  0.65836919     0.20400
H2390       H  0.82040714  0.94865749  0.61314052     0.18800
H2391       H  0.84779277  0.01517039  0.61543792     0.18700
H2392       H  0.89330793  0.90531932  0.64887922     0.14600
C2393       C  0.93753358  0.76454246  0.54114234     0.30000
C2394       C  0.94066252  0.75028481  0.52334915    -0.36300
C2395       C  0.96934953  0.76789786  0.51249243     0.16000
C2396       C  0.99325839  0.79739570  0.51890523     0.21800
C2397       C  0.99070474  0.81094722  0.53704678    -0.34400
C2398       C  0.96202176  0.79358680  0.54770654     0.15900
O2399       O  0.91076099  0.75544386  0.55138096    -0.26400
C2400       C  0.91833978  0.77894510  0.56460103     0.05700
C2401       C  0.95002638  0.80305490  0.56316726    -0.31300
O2402       O  0.01487218  0.81263164  0.50481354    -0.23200
C2403       C  0.00524587  0.79258112  0.48927791    -0.03100
C2404       C  0.97725033  0.76410846  0.49317937    -0.17600
H2405       H  0.92096588  0.72849622  0.51740588     0.20400
H2406       H  0.00851896  0.83482895  0.54149463     0.18800
H2407       H  0.96144602  0.82587303  0.57081764     0.18700
H2408       H  0.96278690  0.74541999  0.48252172     0.14600
C2409       C  0.77983127  0.83938203  0.49023806     0.30000
C2410       C  0.76713227  0.82081186  0.50789112    -0.36300
C2411       C  0.78767295  0.81263067  0.51832967     0.16000
C2412       C  0.81846063  0.82218477  0.51175024     0.21800
C2413       C  0.83067896  0.83973435  0.49392033    -0.34400
C2414       C  0.81036963  0.84795708  0.48365007     0.15900
O2415       O  0.76693722  0.85357058  0.47964040    -0.26400
C2416       C  0.78973919  0.87134202  0.46629223     0.05700
C2417       C  0.81699514  0.86843567  0.46800135    -0.31300
O2418       O  0.83522049  0.81622207  0.52503150    -0.23200
C2419       C  0.81489332  0.80199532  0.54019518    -0.03100
C2420       C  0.78478209  0.79879151  0.53691791    -0.17600
H2421       H  0.74380312  0.81497721  0.51377743     0.20400
H2422       H  0.85519608  0.84835476  0.48915998     0.18800
H2423       H  0.83945470  0.88153501  0.45989005     0.18700
H2424       H  0.76490526  0.79033104  0.54744773     0.14600
C2425       C  0.28050111  0.49674470  0.56627120     0.30000
C2426       C  0.30627385  0.49344645  0.57338580    -0.36300
C2427       C  0.33527097  0.51055590  0.56274353     0.16000
C2428       C  0.33892366  0.53005808  0.54639280     0.21800
C2429       C  0.31272320  0.53214341  0.53868808    -0.34400
C2430       C  0.28363265  0.51474328  0.54919549     0.15900
O2431       O  0.25273222  0.48670339  0.57559655    -0.26400
C2432       C  0.23759210  0.49773313  0.56401154     0.05700
C2433       C  0.25557047  0.51508665  0.54732077    -0.31300
O2434       O  0.36937461  0.54976990  0.54201184    -0.23200
C2435       C  0.38547459  0.54231970  0.55538116    -0.03100
C2436       C  0.36529101  0.51764891  0.56834291    -0.17600
H2437       H  0.30459329  0.48059713  0.58724897     0.20400
H2438       H  0.31546927  0.54838780  0.52648303     0.18800
H2439       H  0.24976244  0.52825399  0.53637126     0.18700
H2440       H  0.37191725  0.51024671  0.58221036     0.14600
C2441       C  0.43201401  0.75546830  0.55668190     0.30000
C2442       C  0.45612933  0.75181065  0.56643266    -0.36300
C2443       C  0.45204355  0.72084715  0.56675201     0.16000
C2444       C  0.42626987  0.69532298  0.55769365     0.21800
C2445       C  0.40208488  0.69893005  0.54799746    -0.34400
C2446       C  0.40598926  0.72985728  0.54792154     0.15900
O2447       O  0.42864966  0.78104561  0.55751744    -0.26400
C2448       C  0.40020952  0.77213340  0.54908568     0.05700
C2449       C  0.38509677  0.74035434  0.54283403    -0.31300
O2450       O  0.42689523  0.66840558  0.56008765    -0.23200
C2451       C  0.45317551  0.67664262  0.57105776    -0.03100
C2452       C  0.46970912  0.70896052  0.57578041    -0.17600
H2453       H  0.47586322  0.77145522  0.57416928     0.20400
H2454       H  0.38102340  0.67876100  0.54169830     0.18800
H2455       H  0.36042430  0.72584104  0.53810170     0.18700
H2456       H  0.49159827  0.72179210  0.58442253     0.14600
C2457       C  0.63853502  0.69605679  0.57890994     0.30000
C2458       C  0.67016224  0.70587734  0.57303065    -0.36300
C2459       C  0.69411324  0.72376146  0.58729412     0.16000
C2460       C  0.68785038  0.73192465  0.60613492     0.21800
C2461       C  0.65610510  0.72256836  0.61188771    -0.34400
C2462       C  0.63197179  0.70436587  0.59762101     0.15900
O2463       O  0.61236664  0.67550524  0.56907231    -0.26400
C2464       C  0.58849469  0.67088049  0.58143055     0.05700
C2465       C  0.59936435  0.68812612  0.59943321    -0.31300
O2466       O  0.71381347  0.74573178  0.61784479    -0.23200
C2467       C  0.73684899  0.74620631  0.60623590    -0.03100
C2468       C  0.72577150  0.73305846  0.58711625    -0.17600
H2469       H  0.67559534  0.69837837  0.55880423     0.20400
H2470       H  0.65040407  0.72745572  0.62688145     0.18800
H2471       H  0.58535529  0.68649348  0.61272297     0.18700
H2472       H  0.73891924  0.72908738  0.57517796     0.14600
C2473       C  0.50672937  0.46688748  0.49777691     0.30000
C2474       C  0.51143797  0.49793702  0.49987575    -0.36300
C2475       C  0.50981514  0.50772504  0.51972896     0.16000
C2476       C  0.50413383  0.48849755  0.53653020     0.21800
C2477       C  0.49955481  0.45741498  0.53445284    -0.34400
C2478       C  0.50094952  0.44752302  0.51452822     0.15900
O2479       O  0.50606697  0.45250879  0.48051101    -0.26400
C2480       C  0.49956581  0.42335571  0.48620283     0.05700
C2481       C  0.49623918  0.41903535  0.50722077    -0.31300
O2482       O  0.50246635  0.50227471  0.55356611    -0.23200
C2483       C  0.50718181  0.53076632  0.54755050    -0.03100
C2484       C  0.51187836  0.53528648  0.52665215    -0.17600
H2485       H  0.51546237  0.51323113  0.48686536     0.20400
H2486       H  0.49457424  0.44177802  0.54740185     0.18800
H2487       H  0.49062981  0.39773762  0.51583846     0.18700
H2488       H  0.51547199  0.55571407  0.51774738     0.14600
C2489       C  0.40396756  0.48024620  0.65886680     0.30000
C2490       C  0.40268668  0.47082641  0.67920982    -0.36300
C2491       C  0.37307455  0.45956154  0.68905891     0.16000
C2492       C  0.34648978  0.45733265  0.67938754     0.21800
C2493       C  0.34728620  0.46504351  0.65885153    -0.34400
C2494       C  0.37689049  0.47670076  0.64913254     0.15900
O2495       O  0.43042123  0.49873872  0.64858585    -0.26400
C2496       C  0.42007846  0.50705735  0.63215336     0.05700
C2497       C  0.38692720  0.49330820  0.63150932    -0.31300
O2498       O  0.32330669  0.45225101  0.69209583    -0.23200
C2499       C  0.33482241  0.45054529  0.71008188    -0.03100
C2500       C  0.36555723  0.45463535  0.70920675    -0.17600
H2501       H  0.42406051  0.47529405  0.68739596     0.20400
H2502       H  0.32717429  0.46527882  0.65156788     0.18800
H2503       H  0.37280357  0.49894113  0.62121832     0.18700
H2504       H  0.38113037  0.45689603  0.72173930     0.14600
C2505       C  0.53233746  0.66930557  0.67942972     0.30000
C2506       C  0.55311950  0.69793432  0.68941182    -0.36300
C2507       C  0.54121448  0.70427047  0.70727973     0.16000
C2508       C  0.51115536  0.68355001  0.71493424     0.21800
C2509       C  0.49088429  0.65462453  0.70534490    -0.34400
C2510       C  0.50244025  0.64868134  0.68733576     0.15900
O2511       O  0.53629997  0.66096335  0.66099048    -0.26400
C2512       C  0.50846753  0.63488067  0.65714742     0.05700
C2513       C  0.48668609  0.62614814  0.67301239    -0.31300
O2514       O  0.50256825  0.69622853  0.72963151    -0.23200
C2515       C  0.52737124  0.72545439  0.73158688    -0.03100
C2516       C  0.55237277  0.73167966  0.71826878    -0.17600
H2517       H  0.57581138  0.71523963  0.68283246     0.20400
H2518       H  0.46663308  0.63916460  0.71058453     0.18800
H2519       H  0.46193620  0.60727487  0.67327836     0.18700
H2520       H  0.57392419  0.75420472  0.71553468     0.14600
loop_ 
_geom_bond_atom_site_label_1 
_geom_bond_atom_site_label_2 
_geom_bond_distance 
_geom_bond_site_symmetry_2 
_ccdc_geom_bond_type 
Fe1          O17   2.061       .  S
Fe1           O7   2.074       .  S
Fe1          O14   2.046       .  S
Fe1           O6   2.056       .  S
Fe1          O12   1.945       .  S
Fe2           O5   2.081       .  S
Fe2           O9   2.078       .  S
Fe2          O13   2.087       .  S
Fe2          O18   2.090       .  S
Fe2          O12   1.960       .  S
Fe3          O21   2.095       .  S
Fe3           O8   2.076       .  S
Fe3          O15   2.086       .  S
Fe3           O4   2.090       .  S
Fe3          O12   1.954       .  S
O4           C11   1.277       .  A
O5           C19   1.276       .  A
O6           C11   1.270       .  A
O7           C10   1.268       .  A
O8           C20   1.268       .  A
O9           C22   1.270       .  A
C10          O15   1.268       .  A
C10        C2451   1.475       .  S
C11        C2435   1.466       .  S
O13          C16   1.272       .  A
O14          C16   1.267       .  A
C16        C2496   1.468       .  S
O17          C22   1.269       .  A
O18          C20   1.270       .  A
C19          O21   1.281       .  A
C19        C2464   1.477       .  S
C20        C2483   1.487       .  S
C22        C2512   1.467       .  S
Fe23         O39   2.058       .  S
Fe23         O29   2.069       .  S
Fe23         O36   2.053       .  S
Fe23         O28   2.066       .  S
Fe23         O34   1.935       .  S
Fe24         O27   2.067       .  S
Fe24         O31   2.070       .  S
Fe24         O35   2.076       .  S
Fe24         O40   2.080       .  S
Fe24         O34   1.939       .  S
Fe25         O43   2.117       .  S
Fe25         O30   2.055       .  S
Fe25         O37   2.071       .  S
Fe25         O26   2.110       .  S
Fe25         O34   1.937       .  S
O26          C33   1.282       .  A
O27          C41   1.274       .  A
O28          C33   1.269       .  A
O29          C32   1.266       .  A
O30          C42   1.263       .  A
O31          C44   1.269       .  A
C32          O37   1.264       .  A
C32        C2387   1.462       .  S
C33        C2355   1.474       .  S
O35          C38   1.272       .  A
O36          C38   1.269       .  A
C38        C2400   1.465       .  S
O39          C44   1.268       .  A
O40          C42   1.268       .  A
C41          O43   1.286       .  A
C41        C2467   1.486       .  S
C42        C2368   1.471       .  S
C44        C2419   1.457       .  S
Fe45         O61   2.056       .  S
Fe45         O51   2.068       .  S
Fe45         O58   2.063       .  S
Fe45         O50   2.072       .  S
Fe45         O56   1.940       .  S
Fe46         O49   2.074       .  S
Fe46         O53   2.075       .  S
Fe46         O57   2.072       .  S
Fe46         O62   2.069       .  S
Fe46         O56   1.946       .  S
Fe47         O65   2.062       .  S
Fe47         O52   2.102       .  S
Fe47         O59   2.091       .  S
Fe47         O48   2.071       .  S
Fe47         O56   1.945       .  S
O48          C55   1.264       .  A
O49          C63   1.267       .  A
O50          C55   1.265       .  A
O51          C54   1.272       .  A
O52          C64   1.283       .  A
O53          C66   1.269       .  A
C54          O59   1.279       .  A
C54        C2275   1.465       .  S
C55        C2288   1.472       .  S
O57          C60   1.270       .  A
O58          C60   1.270       .  A
C60        C2320   1.460       .  S
O61          C66   1.268       .  A
O62          C64   1.275       .  A
C63          O65   1.264       .  A
C63        C2371   1.471       .  S
C64        C2307   1.474       .  S
C66        C2336   1.468       .  S
Fe67         O83   2.047       .  S
Fe67         O73   2.072       .  S
Fe67         O80   2.061       .  S
Fe67         O72   2.065       .  S
Fe67         O78   1.938       .  S
Fe68         O71   2.083       .  S
Fe68         O75   2.079       .  S
Fe68         O79   2.078       .  S
Fe68         O84   2.069       .  S
Fe68         O78   1.946       .  S
Fe69         O87   2.077       .  S
Fe69         O74   2.101       .  S
Fe69         O81   2.091       .  S
Fe69         O70   2.094       .  S
Fe69         O78   1.944       .  S
O70          C77   1.269       .  A
O71          C85   1.270       .  A
O72          C77   1.266       .  A
O73          C76   1.271       .  A
O74          C86   1.282       .  A
O75          C88   1.271       .  A
C76          O81   1.277       .  A
C76        C2192   1.471       .  S
C77        C2227   1.478       .  S
O79          C82   1.270       .  A
O80          C82   1.269       .  A
C82        C2259   1.464       .  S
O83          C88   1.268       .  A
O84          C86   1.276       .  A
C85          O87   1.268       .  A
C85        C2208   1.481       .  S
C86        C2304   1.477       .  S
C88        C2243   1.464       .  S
Fe89        O105   2.068       .  S
Fe89         O95   2.073       .  S
Fe89        O102   2.049       .  S
Fe89         O94   2.069       .  S
Fe89        O100   1.939       .  S
Fe90         O93   2.080       .  S
Fe90         O97   2.072       .  S
Fe90        O101   2.090       .  S
Fe90        O106   2.079       .  S
Fe90        O100   1.955       .  S
Fe91        O109   2.098       .  S
Fe91         O96   2.085       .  S
Fe91        O103   2.086       .  S
Fe91         O92   2.089       .  S
Fe91        O100   1.948       .  S
O92          C99   1.279       .  A
O93         C107   1.274       .  A
O94          C99   1.274       .  A
O95          C98   1.266       .  A
O96         C108   1.269       .  A
O97         C110   1.270       .  A
C98         O103   1.267       .  A
C98        C2131   1.480   1_565  S
C99        C2112   1.469       .  S
O101        C104   1.272       .  A
O102        C104   1.267       .  A
C104       C2176   1.471       .  S
O105        C110   1.271       .  A
O106        C108   1.270       .  A
C107        O109   1.281       .  A
C107       C2144   1.476       .  S
C108       C2211   1.482       .  S
C110       C2160   1.462       .  S
Fe111       O127   2.065       .  S
Fe111       O117   2.067       .  S
Fe111       O124   2.054       .  S
Fe111       O116   2.066       .  S
Fe111       O122   1.939       .  S
Fe112       O115   2.069       .  S
Fe112       O119   2.068       .  S
Fe112       O123   2.081       .  S
Fe112       O128   2.072       .  S
Fe112       O122   1.940       .  S
Fe113       O131   2.113       .  S
Fe113       O118   2.081       .  S
Fe113       O125   2.094       .  S
Fe113       O114   2.098       .  S
Fe113       O122   1.944       .  S
O114        C121   1.279       .  A
O115        C129   1.274       .  A
O116        C121   1.269       .  A
O117        C120   1.267       .  A
O118        C130   1.269       .  A
O119        C132   1.269       .  A
C120        O125   1.270       .  A
C120       C2067   1.478       .  S
C121       C2032   1.468       .  S
O123        C126   1.272       .  A
O124        C126   1.269       .  A
C126       C2080   1.468       .  S
O127        C132   1.270       .  A
O128        C130   1.269       .  A
C129        O131   1.285       .  A
C129       C2147   1.483       .  S
C130       C2048   1.477       .  S
C132       C2096   1.458       .  S
Fe133       O149   2.047       .  S
Fe133       O139   2.068       .  S
Fe133       O146   2.051       .  S
Fe133       O138   2.063       .  S
Fe133       O144   1.939       .  S
Fe134       O137   2.072       .  S
Fe134       O141   2.079       .  S
Fe134       O145   2.070       .  S
Fe134       O150   2.073       .  S
Fe134       O144   1.943       .  S
Fe135       O153   2.074       .  S
Fe135       O140   2.122       .  S
Fe135       O147   2.109       .  S
Fe135       O136   2.095       .  S
Fe135       O144   1.942       .  S
O136        C143   1.270       .  A
O137        C151   1.268       .  A
O138        C143   1.266       .  A
O139        C142   1.268       .  A
O140        C152   1.286       .  A
O141        C154   1.273       .  A
C142        O147   1.279       .  A
C142       C1936   1.478       .  S
C143       C1968   1.474       .  S
O145        C148   1.269       .  A
O146        C148   1.267       .  A
C148       C2000   1.458       .  S
O149        C154   1.268       .  A
O150        C152   1.275       .  A
C151        O153   1.267       .  A
C151       C1955   1.474       .  S
C152       C1987   1.486       .  S
C154       C2019   1.464       .  S
Fe155       O171   2.051       .  S
Fe155       O161   2.080       .  S
Fe155       O168   2.058       .  S
Fe155       O160   2.067       .  S
Fe155       O166   1.933       .  S
Fe156       O159   2.092       .  S
Fe156       O163   2.088       .  S
Fe156       O167   2.079       .  S
Fe156       O172   2.086       .  S
Fe156       O166   1.949       .  S
Fe157       O175   2.074       .  S
Fe157       O162   2.115       .  S
Fe157       O169   2.096       .  S
Fe157       O158   2.066       .  S
Fe157       O166   1.942       .  S
O158        C165   1.259       .  A
O159        C173   1.269       .  A
O160        C165   1.259       .  A
O161        C164   1.280       .  A
O162        C174   1.287       .  A
O163        C176   1.272       .  A
C164        O169   1.286       .  A
C164       C1875   1.472       .  S
C165       C1891   1.473       .  S
O167        C170   1.273       .  A
O168        C170   1.270       .  A
C170       C1923   1.461       .  S
O171        C176   1.267       .  A
O172        C174   1.280       .  A
C173        O175   1.265       .  A
C173       C2480   1.486       .  S
C174       C1984   1.493       .  S
C176       C1907   1.477       .  S
Fe177       O193   2.053       .  S
Fe177       O183   2.069       .  S
Fe177       O190   2.056       .  S
Fe177       O182   2.026       .  S
Fe177       O188   1.939       .  S
Fe178       O181   2.044       .  S
Fe178       O185   2.101       .  S
Fe178       O189   2.068       .  S
Fe178       O194   2.100       .  S
Fe178       O188   1.956       .  S
Fe179       O197   2.115       .  S
Fe179       O184   2.057       .  S
Fe179       O191   2.072       .  S
Fe179       O180   2.133       .  S
Fe179       O188   1.951       .  S
O180        C187   1.287       .  A
O181        C195   1.267       .  A
O182        C187   1.269       .  A
O183        C186   1.262       .  A
O184        C196   1.267       .  A
O185        C198   1.278       .  A
C186        O191   1.262       .  A
C186       C1811   1.470       .  S
C187       C1776   1.464       .  S
O189        C192   1.265       .  A
O190        C192   1.265       .  A
C192       C1840   1.464       .  S
O193        C198   1.272       .  A
O194        C196   1.274       .  A
C195        O197   1.281       .  A
C195       C1827   1.477       .  S
C196       C1792   1.485       .  S
C198       C1856   1.460       .  S
Fe199       O215   2.054       .  S
Fe199       O205   2.066       .  S
Fe199       O212   2.048       .  S
Fe199       O204   2.029       .  S
Fe199       O210   1.946       .  S
Fe200       O203   2.037       .  S
Fe200       O207   2.080       .  S
Fe200       O211   2.065       .  S
Fe200       O216   2.082       .  S
Fe200       O210   1.958       .  S
Fe201       O219   2.116       .  S
Fe201       O206   2.067       .  S
Fe201       O213   2.076       .  S
Fe201       O202   2.133       .  S
Fe201       O210   1.970       .  S
O202        C209   1.284       .  A
O203        C217   1.263       .  A
O204        C209   1.265       .  A
O205        C208   1.264       .  A
O206        C218   1.271       .  A
O207        C220   1.275       .  A
C208        O213   1.266       .  A
C208       C1728   1.470       .  S
C209       C1712   1.468       .  S
O211        C214   1.264       .  A
O212        C214   1.260       .  A
C214       C1747   1.462       .  S
O215        C220   1.273       .  A
O216        C218   1.274       .  A
C217        O219   1.278       .  A
C217       C1824   1.478       .  S
C218       C1952   1.475       .  S
C220       C1763   1.454       .  S
Fe221       O237   2.054       .  S
Fe221       O227   2.063       .  S
Fe221       O234   2.053       .  S
Fe221       O226   2.072   1_545  S
Fe221       O232   1.934       .  S
Fe222       O225   2.080       .  S
Fe222       O229   2.082       .  S
Fe222       O233   2.087       .  S
Fe222       O238   2.061       .  S
Fe222       O232   1.948       .  S
Fe223       O241   2.081       .  S
Fe223       O228   2.116   1_545  S
Fe223       O235   2.105       .  S
Fe223       O224   2.076   1_545  S
Fe223       O232   1.942       .  S
O224        C231   1.266       .  A
O225        C239   1.271       .  A
O226        C231   1.267       .  A
O227        C230   1.271       .  A
O228        C240   1.283       .  A
O229        C242   1.272       .  A
C230        O235   1.282       .  A
C230       C1632   1.474       .  S
C231       C1651   1.473       .  S
O233        C236   1.272       .  A
O234        C236   1.268       .  A
C236       C1696   1.465   1_545  S
O237        C242   1.269       .  A
O238        C240   1.270   1_545  A
C239        O241   1.270       .  A
C239       C1795   1.481       .  S
C240       C1664   1.480       .  S
C242       C1683   1.467       .  S
Fe243       O259   2.050       .  S
Fe243       O249   2.061       .  S
Fe243       O256   2.075       .  S
Fe243       O248   2.068       .  S
Fe243       O254   1.936       .  S
Fe244       O247   2.072       .  S
Fe244       O251   2.083       .  S
Fe244       O255   2.068       .  S
Fe244       O260   2.069       .  S
Fe244       O254   1.950       .  S
Fe245       O263   2.088       .  S
Fe245       O250   2.098       .  S
Fe245       O257   2.097       .  S
Fe245       O246   2.098       .  S
Fe245       O254   1.945       .  S
O246        C253   1.273       .  A
O247        C261   1.270       .  A
O248        C253   1.271       .  A
O249        C252   1.268       .  A
O250        C262   1.279       .  A
O251        C264   1.271       .  A
C252        O257   1.276       .  A
C252       C1568   1.470       .  S
C253       C1584   1.482       .  S
O255        C258   1.268       .  A
O256        C258   1.271       .  A
C258       C1603   1.465       .  S
O259        C264   1.266       .  A
O260        C262   1.272       .  A
C261        O263   1.272       .  A
C261       C2051   1.478       .  S
C262       C1667   1.474       .  S
C264       C1616   1.460       .  S
Fe265       O281   2.035       .  S
Fe265       O271   2.081       .  S
Fe265       O278   2.071       .  S
Fe265       O270   2.055       .  S
Fe265       O276   1.924       .  S
Fe266       O269   2.074       .  S
Fe266       O273   2.090       .  S
Fe266       O277   2.065       .  S
Fe266       O282   2.074       .  S
Fe266       O276   1.932       .  S
Fe267       O285   2.077       .  S
Fe267       O272   2.103       .  S
Fe267       O279   2.085       .  S
Fe267       O268   2.090       .  S
Fe267       O276   1.939       .  S
O268        C275   1.266       .  A
O269        C283   1.269       .  A
O270        C275   1.263       .  A
O271        C274   1.275       .  A
O272        C284   1.283       .  A
O273        C286   1.273       .  A
C274        O279   1.278       .  A
C274       C1888   1.468       .  S
C275       C1523   1.471       .  S
O277        C280   1.269       .  A
O278        C280   1.272       .  A
C280       C1843   1.458       .  S
O281        C286   1.265       .  A
O282        C284   1.276       .  A
C283        O285   1.269       .  A
C283       C1507   1.475       .  S
C284       C1536   1.481       .  S
C286       C1555   1.468       .  S
Fe287       O303   2.050       .  S
Fe287       O293   2.071       .  S
Fe287       O300   2.058       .  S
Fe287       O292   2.077   1_565  S
Fe287       O298   1.942       .  S
Fe288       O291   2.081       .  S
Fe288       O295   2.071       .  S
Fe288       O299   2.084       .  S
Fe288       O304   2.072       .  S
Fe288       O298   1.965       .  S
Fe289       O307   2.055       .  S
Fe289       O294   2.101       .  S
Fe289       O301   2.099       .  S
Fe289       O290   2.070       .  S
Fe289       O298   1.949       .  S
O290        C297   1.261   1_565  A
O291        C305   1.265       .  A
O292        C297   1.262       .  A
O293        C296   1.277       .  A
O294        C306   1.286       .  A
O295        C308   1.268       .  A
C296        O301   1.284       .  A
C296       C1456   1.474       .  S
C297       C1939   1.482       .  S
O299        C302   1.272       .  A
O300        C302   1.268       .  A
C302       C1488   1.466       .  S
O303        C308   1.268       .  A
O304        C306   1.278       .  A
C305        O307   1.261       .  A
C305       C1475   1.477       .  S
C306       C1539   1.471       .  S
C308       C2416   1.464       .  S
Fe309       O325   2.043       .  S
Fe309       O315   2.071       .  S
Fe309       O322   2.065       .  S
Fe309       O314   2.063       .  S
Fe309       O320   1.928       .  S
Fe310       O313   2.074       .  S
Fe310       O317   2.084       .  S
Fe310       O321   2.076       .  S
Fe310       O326   2.070       .  S
Fe310       O320   1.939       .  S
Fe311       O329   2.071       .  S
Fe311       O316   2.113       .  S
Fe311       O323   2.104       .  S
Fe311       O312   2.090       .  S
Fe311       O320   1.939       .  S
O312        C319   1.268       .  A
O313        C327   1.269       .  A
O314        C319   1.266       .  A
O315        C318   1.271       .  A
O316        C328   1.285       .  A
O317        C330   1.272       .  A
C318        O323   1.280       .  A
C318       C1392   1.475       .  S
C319       C1571   1.473       .  S
O321        C324   1.270       .  A
O322        C324   1.271       .  A
C324       C1443   1.464       .  S
O325        C330   1.267       .  A
O326        C328   1.274       .  A
C327        O329   1.267       .  A
C327       C1424   1.471       .  S
C328       C1411   1.481       .  S
C330       C1760   1.465       .  S
Fe331       O347   2.057       .  S
Fe331       O337   2.063       .  S
Fe331       O344   2.057       .  S
Fe331       O336   2.073   1_655  S
Fe331       O342   1.948       .  S
Fe332       O335   2.086       .  S
Fe332       O339   2.066       .  S
Fe332       O343   2.081       .  S
Fe332       O348   2.062       .  S
Fe332       O342   1.956       .  S
Fe333       O351   2.072       .  S
Fe333       O338   2.107       .  S
Fe333       O345   2.097       .  S
Fe333       O334   2.070       .  S
Fe333       O342   1.949       .  S
O334        C341   1.263   1_655  A
O335        C349   1.270       .  A
O336        C341   1.266       .  A
O337        C340   1.271       .  A
O338        C350   1.283       .  A
O339        C352   1.269       .  A
C340        O345   1.280       .  A
C340       C1648   1.469       .  S
C341       C1363   1.471       .  S
O343        C346   1.270       .  A
O344        C346   1.267       .  A
C346       C2179   1.464       .  S
O347        C352   1.269       .  A
O348        C350   1.273       .  A
C349        O351   1.265       .  A
C349       C1344   1.484       .  S
C350       C1408   1.476   1_655  S
C352       C1379   1.460       .  S
Fe353       O369   2.056       .  S
Fe353       O359   2.082       .  S
Fe353       O366   2.056       .  S
Fe353       O358   2.027       .  S
Fe353       O364   1.948       .  S
Fe354       O357   2.031       .  S
Fe354       O361   2.103       .  S
Fe354       O365   2.056       .  S
Fe354       O370   2.107       .  S
Fe354       O364   1.961       .  S
Fe355       O373   2.115       .  S
Fe355       O360   2.061       .  S
Fe355       O367   2.073       .  S
Fe355       O356   2.128       .  S
Fe355       O364   1.968       .  S
O356        C363   1.284       .  A
O357        C371   1.261       .  A
O358        C363   1.265       .  A
O359        C362   1.268       .  A
O360        C372   1.269       .  A
O361        C374   1.280       .  A
C362        O367   1.265       .  A
C362       C1296   1.478       .  S
C363       C1808   1.465       .  S
O365        C368   1.261       .  A
O366        C368   1.262       .  A
C368       C1328   1.461       .  S
O369        C374   1.275       .  A
O370        C372   1.278       .  A
C371        O373   1.278       .  A
C371       C1315   1.475       .  S
C372       C1347   1.485       .  S
C374       C1904   1.468       .  S
Fe375       O391   2.041       .  S
Fe375       O381   2.079       .  S
Fe375       O388   2.045       .  S
Fe375       O380   2.016       .  S
Fe375       O386   1.944       .  S
Fe376       O379   2.041       .  S
Fe376       O383   2.091       .  S
Fe376       O387   2.074       .  S
Fe376       O392   2.091       .  S
Fe376       O386   1.960       .  S
Fe377       O395   2.113       .  S
Fe377       O382   2.052       .  S
Fe377       O389   2.070       .  S
Fe377       O378   2.137       .  S
Fe377       O386   1.964       .  S
O378        C385   1.285       .  A
O379        C393   1.264       .  A
O380        C385   1.263       .  A
O381        C384   1.265       .  A
O382        C394   1.268       .  A
O383        C396   1.278       .  A
C384        O389   1.263       .  A
C384       C1715   1.473       .  S
C385       C1267   1.465       .  S
O387        C390   1.265       .  A
O388        C390   1.261       .  A
C390       C1600   1.466       .  S
O391        C396   1.273       .  A
O392        C394   1.275       .  A
C393        O395   1.278       .  A
C393       C1312   1.477       .  S
C394       C1472   1.474       .  S
C396       C1280   1.456       .  S
Fe397       O413   2.061       .  S
Fe397       O403   2.068   1_455  S
Fe397       O410   2.051       .  S
Fe397       O402   2.062       .  S
Fe397       O408   1.933       .  S
Fe398       O401   2.061       .  S
Fe398       O405   2.078       .  S
Fe398       O409   2.071       .  S
Fe398       O414   2.072       .  S
Fe398       O408   1.942       .  S
Fe399       O417   2.114   1_455  S
Fe399       O404   2.089       .  S
Fe399       O411   2.091   1_455  S
Fe399       O400   2.111       .  S
Fe399       O408   1.940       .  S
O400        C407   1.283       .  A
O401        C415   1.272   1_455  A
O402        C407   1.268       .  A
O403        C406   1.268       .  A
O404        C416   1.271       .  A
O405        C418   1.270       .  A
C406        O411   1.269       .  A
C406       C1219   1.476       .  S
C407       C2128   1.473       .  S
O409        C412   1.270       .  A
O410        C412   1.269       .  A
C412       C1248   1.461       .  S
O413        C418   1.269       .  A
O414        C416   1.268       .  A
C415        O417   1.284       .  A
C415       C1235   1.478       .  S
C416       C1203   1.481       .  S
C418       C1680   1.464   1_455  S
Fe419       O435   2.061       .  S
Fe419       O425   2.073       .  S
Fe419       O432   2.055       .  S
Fe419       O424   2.064       .  S
Fe419       O430   1.934       .  S
Fe420       O423   2.077       .  S
Fe420       O427   2.066       .  S
Fe420       O431   2.084       .  S
Fe420       O436   2.073       .  S
Fe420       O430   1.944       .  S
Fe421       O439   2.091       .  S
Fe421       O426   2.069       .  S
Fe421       O433   2.082       .  S
Fe421       O422   2.093       .  S
Fe421       O430   1.941       .  S
O422        C429   1.276       .  A
O423        C437   1.275       .  A
O424        C429   1.268       .  A
O425        C428   1.269       .  A
O426        C438   1.266       .  A
O427        C440   1.268       .  A
C428        O433   1.268       .  A
C428       C2035   1.472       .  S
C429       C1168   1.466       .  S
O431        C434   1.273       .  A
O432        C434   1.269       .  A
C434       C2323   1.466       .  S
O435        C440   1.268       .  A
O436        C438   1.268       .  A
C437        O439   1.279       .  A
C437       C1232   1.471       .  S
C438       C1427   1.470       .  S
C440       C1187   1.457       .  S
Fe441       O457   2.050       .  S
Fe441       O447   2.070       .  S
Fe441       O454   2.071       .  S
Fe441       O446   2.075       .  S
Fe441       O452   1.938       .  S
Fe442       O445   2.075       .  S
Fe442       O449   2.081       .  S
Fe442       O453   2.062       .  S
Fe442       O458   2.079       .  S
Fe442       O452   1.949       .  S
Fe443       O461   2.082       .  S
Fe443       O448   2.107       .  S
Fe443       O455   2.102       .  S
Fe443       O444   2.076       .  S
Fe443       O452   1.941       .  S
O444        C451   1.265       .  A
O445        C459   1.267       .  A
O446        C451   1.267       .  A
O447        C450   1.273       .  A
O448        C460   1.283       .  A
O449        C462   1.272       .  A
C450        O455   1.282       .  A
C450       C2224   1.473       .  S
C451       C1120   1.474       .  S
O453        C456   1.268       .  A
O454        C456   1.271       .  A
C456       C2499   1.458       .  S
O457        C462   1.267       .  A
O458        C460   1.274       .  A
C459        O461   1.269       .  A
C459       C1200   1.479       .  S
C460       C1136   1.480       .  S
C462       C1152   1.464       .  S
Fe463       O479   2.052       .  S
Fe463       O469   2.070       .  S
Fe463       O476   2.065       .  S
Fe463       O468   2.069       .  S
Fe463       O474   1.937       .  S
Fe464       O467   2.082       .  S
Fe464       O471   2.078       .  S
Fe464       O475   2.082       .  S
Fe464       O480   2.073       .  S
Fe464       O474   1.942       .  S
Fe465       O483   2.083       .  S
Fe465       O470   2.121       .  S
Fe465       O477   2.106       .  S
Fe465       O466   2.084       .  S
Fe465       O474   1.943       .  S
O466        C473   1.267       .  A
O467        C481   1.270       .  A
O468        C473   1.267       .  A
O469        C472   1.271       .  A
O470        C482   1.285       .  A
O471        C484   1.271       .  A
C472        O477   1.282       .  A
C472       C1072   1.473       .  S
C473       C2272   1.473       .  S
O475        C478   1.272       .  A
O476        C478   1.271       .  A
C478       C1104   1.468       .  S
O479        C484   1.269       .  A
O480        C482   1.275       .  A
C481        O483   1.268       .  A
C481       C1091   1.483       .  S
C482       C1139   1.494       .  S
C484       C2099   1.467       .  S
Fe485       O501   2.057   1_545  S
Fe485       O491   2.076   1_545  S
Fe485       O498   2.047       .  S
Fe485       O490   2.065       .  S
Fe485       O496   1.941       .  S
Fe486       O489   2.076       .  S
Fe486       O493   2.070       .  S
Fe486       O497   2.076       .  S
Fe486       O502   2.077       .  S
Fe486       O496   1.954       .  S
Fe487       O505   2.102   1_545  S
Fe487       O492   2.085       .  S
Fe487       O499   2.079   1_545  S
Fe487       O488   2.106       .  S
Fe487       O496   1.941       .  S
O488        C495   1.284       .  A
O489        C503   1.276   1_545  A
O490        C495   1.272       .  A
O491        C494   1.266       .  A
O492        C504   1.267       .  A
O493        C506   1.268   1_545  A
C494        O499   1.265       .  A
C494       C2352   1.479       .  S
C495       C1027   1.472       .  S
O497        C500   1.272       .  A
O498        C500   1.268       .  A
C500       C2003   1.462       .  S
O501        C506   1.268       .  A
O502        C504   1.267       .  A
C503        O505   1.283       .  A
C503       C1043   1.478       .  S
C504       C1088   1.483       .  S
C506       C1056   1.457       .  S
Fe507       O523   2.058       .  S
Fe507       O513   2.068       .  S
Fe507       O520   2.056       .  S
Fe507       O512   2.061       .  S
Fe507       O518   1.940       .  S
Fe508       O511   2.067       .  S
Fe508       O515   2.069       .  S
Fe508       O519   2.076       .  S
Fe508       O524   2.070       .  S
Fe508       O518   1.948       .  S
Fe509       O527   2.108       .  S
Fe509       O514   2.082       .  S
Fe509       O521   2.079       .  S
Fe509       O510   2.105       .  S
Fe509       O518   1.941       .  S
O510        C517   1.281       .  A
O511        C525   1.272       .  A
O512        C517   1.269       .  A
O513        C516   1.268       .  A
O514        C526   1.270       .  A
O515        C528   1.269       .  A
C516        O521   1.267       .  A
C516        C992   1.474       .  S
C517       C2448   1.471       .  S
O519        C522   1.270       .  A
O520        C522   1.269       .  A
C522       C1008   1.467       .  S
O523        C528   1.267       .  A
O524        C526   1.268       .  A
C525        O527   1.281       .  A
C525       C1040   1.482       .  S
C526       C1504   1.475       .  S
C528       C2240   1.456       .  S
Fe529       O545   2.061       .  S
Fe529       O535   2.068       .  S
Fe529       O542   2.064       .  S
Fe529       O534   2.075       .  S
Fe529       O540   1.941       .  S
Fe530       O533   2.066       .  S
Fe530       O537   2.076       .  S
Fe530       O541   2.068       .  S
Fe530       O546   2.071       .  S
Fe530       O540   1.944       .  S
Fe531       O549   2.076       .  S
Fe531       O536   2.103       .  S
Fe531       O543   2.091       .  S
Fe531       O532   2.081       .  S
Fe531       O540   1.945       .  S
O532        C539   1.268       .  A
O533        C547   1.267       .  A
O534        C539   1.268       .  A
O535        C538   1.270       .  A
O536        C548   1.282       .  A
O537        C550   1.271       .  A
C538        O543   1.278       .  A
C538       C1123   1.465       .  S
C539       C2195   1.476       .  S
O541        C544   1.269       .  A
O542        C544   1.270       .  A
C544       C1011   1.458       .  S
O545        C550   1.269       .  A
O546        C548   1.274       .  A
C547        O549   1.267       .  A
C547        C960   1.472       .  S
C548        C976   1.475       .  S
C550       C2515   1.469       .  S
Fe551       O567   2.053       .  S
Fe551       O557   2.068       .  S
Fe551       O564   2.060       .  S
Fe551       O556   2.075       .  S
Fe551       O562   1.942       .  S
Fe552       O555   2.079       .  S
Fe552       O559   2.072       .  S
Fe552       O563   2.076       .  S
Fe552       O568   2.069       .  S
Fe552       O562   1.946       .  S
Fe553       O571   2.073       .  S
Fe553       O558   2.104       .  S
Fe553       O565   2.089       .  S
Fe553       O554   2.090       .  S
Fe553       O562   1.944       .  S
O554        C561   1.268       .  A
O555        C569   1.268       .  A
O556        C561   1.268       .  A
O557        C560   1.270       .  A
O558        C570   1.283       .  A
O559        C572   1.270       .  A
C560        O565   1.276       .  A
C560       C2291   1.466       .  S
C561       C1075   1.478       .  S
O563        C566   1.271       .  A
O564        C566   1.269       .  A
C566       C2083   1.461       .  S
O567        C572   1.269       .  A
O568        C570   1.276       .  A
C569        O571   1.266       .  A
C569        C947   1.477       .  S
C570        C979   1.479       .  S
C572       C1184   1.464       .  S
Fe573       O589   2.053       .  S
Fe573       O579   2.071       .  S
Fe573       O586   2.060       .  S
Fe573       O578   2.062       .  S
Fe573       O584   1.945       .  S
Fe574       O577   2.065       .  S
Fe574       O581   2.074       .  S
Fe574       O585   2.077       .  S
Fe574       O590   2.085       .  S
Fe574       O584   1.948       .  S
Fe575       O593   2.105       .  S
Fe575       O580   2.069       .  S
Fe575       O587   2.081       .  S
Fe575       O576   2.104       .  S
Fe575       O584   1.950       .  S
O576        C583   1.280       .  A
O577        C591   1.276       .  A
O578        C583   1.268       .  A
O579        C582   1.266       .  A
O580        C592   1.265       .  A
O581        C594   1.268       .  A
C582        O587   1.267       .  A
C582       C2432   1.472       .  S
C583        C995   1.470       .  S
O585        C588   1.273       .  A
O586        C588   1.271       .  A
C588       C2256   1.467       .  S
O589        C594   1.265       .  A
O590        C592   1.268       .  A
C591        O593   1.286       .  A
C591        C931   1.475       .  S
C592        C915   1.484       .  S
C594       C1155   1.460       .  S
Fe595       O611   2.049       .  S
Fe595       O601   2.076       .  S
Fe595       O608   2.054       .  S
Fe595       O600   2.021       .  S
Fe595       O606   1.953       .  S
Fe596       O599   2.045       .  S
Fe596       O603   2.084       .  S
Fe596       O607   2.073       .  S
Fe596       O612   2.091       .  S
Fe596       O606   1.967       .  S
Fe597       O615   2.103       .  S
Fe597       O602   2.065       .  S
Fe597       O609   2.077       .  S
Fe597       O598   2.120       .  S
Fe597       O606   1.979       .  S
O598        C605   1.281       .  A
O599        C613   1.264       .  A
O600        C605   1.267       .  A
O601        C604   1.267       .  A
O602        C614   1.269       .  A
O603        C616   1.275       .  A
C604        O609   1.265       .  A
C604       C1024   1.479   1_655  S
C605       C2384   1.467       .  S
O607        C610   1.265       .  A
O608        C610   1.261       .  A
C610       C1491   1.468       .  S
O611        C616   1.273       .  A
O612        C614   1.275       .  A
C613        O615   1.275       .  A
C613        C928   1.473   1_655  S
C614        C944   1.479       .  S
C616       C2016   1.456       .  S
Fe617       O633   2.059       .  S
Fe617       O623   2.073       .  S
Fe617       O630   2.056       .  S
Fe617       O622   2.070       .  S
Fe617       O628   1.936       .  S
Fe618       O621   2.078       .  S
Fe618       O625   2.073       .  S
Fe618       O629   2.087       .  S
Fe618       O634   2.081       .  S
Fe618       O628   1.941       .  S
Fe619       O637   2.105       .  S
Fe619       O624   2.073       .  S
Fe619       O631   2.079       .  S
Fe619       O620   2.100       .  S
Fe619       O628   1.944       .  S
O620        C627   1.282       .  A
O621        C635   1.278       .  A
O622        C627   1.272       .  A
O623        C626   1.266       .  A
O624        C636   1.264       .  A
O625        C638   1.270       .  A
C626        O631   1.264       .  A
C626       C1171   1.474       .  S
C627       C2064   1.470       .  S
O629        C632   1.274       .  A
O630        C632   1.269       .  A
C632       C1107   1.472       .  S
O633        C638   1.269       .  A
O634        C636   1.269       .  A
C635        O637   1.285       .  A
C635        C880   1.481       .  S
C636        C899   1.478       .  S
C638       C2339   1.459       .  S
Fe639       O655   2.055       .  S
Fe639       O645   2.078       .  S
Fe639       O652   2.055       .  S
Fe639       O644   2.067       .  S
Fe639       O650   1.942       .  S
Fe640       O643   2.078       .  S
Fe640       O647   2.062       .  S
Fe640       O651   2.085       .  S
Fe640       O656   2.067       .  S
Fe640       O650   1.955       .  S
Fe641       O659   2.096       .  S
Fe641       O646   2.070       .  S
Fe641       O653   2.071       .  S
Fe641       O642   2.095       .  S
Fe641       O650   1.951       .  S
O642        C649   1.280       .  A
O643        C657   1.277       .  A
O644        C649   1.272       .  A
O645        C648   1.266       .  A
O646        C658   1.264       .  A
O647        C660   1.266       .  A
C648        O653   1.264       .  A
C648       C2115   1.475       .  S
C649       C1216   1.470       .  S
O651        C654   1.272       .  A
O652        C654   1.268       .  A
C654       C1699   1.469       .  S
O655        C660   1.268       .  A
O656        C658   1.265       .  A
C657        O659   1.282       .  A
C657        C883   1.475       .  S
C658        C963   1.471       .  S
C660       C1376   1.452       .  S
Fe661       O677   2.040       .  S
Fe661       O667   2.077       .  S
Fe661       O674   2.054       .  S
Fe661       O666   2.060       .  S
Fe661       O672   1.933       .  S
Fe662       O665   2.082       .  S
Fe662       O669   2.077       .  S
Fe662       O673   2.073       .  S
Fe662       O678   2.082       .  S
Fe662       O672   1.951       .  S
Fe663       O681   2.069       .  S
Fe663       O668   2.114       .  S
Fe663       O675   2.108       .  S
Fe663       O664   2.091       .  S
Fe663       O672   1.945       .  S
O664        C671   1.263       .  A
O665        C679   1.265       .  A
O666        C671   1.260       .  A
O667        C670   1.277       .  A
O668        C680   1.291       .  A
O669        C682   1.272       .  A
C670        O675   1.286       .  A
C670       C1587   1.478       .  S
C671       C1395   1.480       .  S
O673        C676   1.269       .  A
O674        C676   1.267       .  A
C676       C1744   1.459       .  S
O677        C682   1.266       .  A
O678        C680   1.281       .  A
C679        O681   1.262       .  A
C679        C896   1.478       .  S
C680        C867   1.486       .  S
C682       C1283   1.461       .  S
Fe683       O699   2.058       .  S
Fe683       O689   2.058       .  S
Fe683       O696   2.057       .  S
Fe683       O688   2.070       .  S
Fe683       O694   1.943       .  S
Fe684       O687   2.076       .  S
Fe684       O691   2.086       .  S
Fe684       O695   2.068       .  S
Fe684       O700   2.074       .  S
Fe684       O694   1.955       .  S
Fe685       O703   2.069       .  S
Fe685       O690   2.105       .  S
Fe685       O697   2.091       .  S
Fe685       O686   2.082       .  S
Fe685       O694   1.947       .  S
O686        C693   1.269       .  A
O687        C701   1.270       .  A
O688        C693   1.268       .  A
O689        C692   1.268       .  A
O690        C702   1.281       .  A
O691        C704   1.272       .  A
C692        O697   1.276       .  A
C692       C1360   1.464       .  S
C693       C1635   1.475       .  S
O695        C698   1.268       .  A
O696        C698   1.268       .  A
C698       C1251   1.455       .  S
O699        C704   1.269       .  A
O700        C702   1.272       .  A
C701        O703   1.268       .  A
C701        C848   1.473       .  S
C702        C864   1.479       .  S
C704       C2163   1.470       .  S
Fe705       O721   2.052       .  S
Fe705       O711   2.067       .  S
Fe705       O718   2.059       .  S
Fe705       O710   2.064       .  S
Fe705       O716   1.941       .  S
Fe706       O709   2.083       .  S
Fe706       O713   2.079       .  S
Fe706       O717   2.072       .  S
Fe706       O722   2.077       .  S
Fe706       O716   1.956       .  S
Fe707       O725   2.078       .  S
Fe707       O712   2.095       .  S
Fe707       O719   2.086       .  S
Fe707       O708   2.081       .  S
Fe707       O716   1.953       .  S
O708        C715   1.264       .  A
O709        C723   1.268       .  A
O710        C715   1.262       .  A
O711        C714   1.274       .  A
O712        C724   1.282       .  A
O713        C726   1.272       .  A
C714        O719   1.280       .  A
C714       C1520   1.463       .  S
C715       C1872   1.476       .  S
O717        C720   1.269       .  A
O718        C720   1.268       .  A
C720       C1331   1.460       .  S
O721        C726   1.267       .  A
O722        C724   1.277       .  A
C723        O725   1.267       .  A
C723        C912   1.486       .  S
C724        C835   1.473       .  S
C726       C1859   1.464       .  S
Fe727       O743   2.048       .  S
Fe727       O733   2.067       .  S
Fe727       O740   2.067       .  S
Fe727       O732   2.062   1_455  S
Fe727       O738   1.933       .  S
Fe728       O731   2.057       .  S
Fe728       O735   2.080       .  S
Fe728       O739   2.067       .  S
Fe728       O744   2.062       .  S
Fe728       O738   1.946       .  S
Fe729       O747   2.087       .  S
Fe729       O734   2.113   1_455  S
Fe729       O741   2.098       .  S
Fe729       O730   2.096   1_455  S
Fe729       O738   1.943       .  S
O730        C737   1.271       .  A
O731        C745   1.268       .  A
O732        C737   1.268       .  A
O733        C736   1.270       .  A
O734        C746   1.281       .  A
O735        C748   1.270       .  A
C736        O741   1.278       .  A
C736       C1971   1.474       .  S
C737       C1459   1.479       .  S
O739        C742   1.268       .  A
O740        C742   1.270       .  A
C742       C2403   1.458       .  S
O743        C748   1.267       .  A
O744        C746   1.270   1_455  A
C745        O747   1.272       .  A
C745        C816   1.471       .  S
C746        C832   1.480       .  S
C748       C1059   1.465       .  S
Fe749       O765   2.045       .  S
Fe749       O755   2.066       .  S
Fe749       O762   2.054       .  S
Fe749       O754   2.028       .  S
Fe749       O760   1.933       .  S
Fe750       O753   2.043       .  S
Fe750       O757   2.099       .  S
Fe750       O761   2.072       .  S
Fe750       O766   2.087       .  S
Fe750       O760   1.954       .  S
Fe751       O769   2.118       .  S
Fe751       O756   2.057       .  S
Fe751       O763   2.075       .  S
Fe751       O752   2.139       .  S
Fe751       O760   1.951       .  S
O752        C759   1.290       .  A
O753        C767   1.267       .  A
O754        C759   1.270       .  A
O755        C758   1.260       .  A
O756        C768   1.267       .  A
O757        C770   1.279       .  A
C758        O763   1.261       .  A
C758       C1264   1.470       .  S
C759       C1731   1.465       .  S
O761        C764   1.264       .  A
O762        C764   1.262       .  A
C764       C1440   1.465       .  S
O765        C770   1.273       .  A
O766        C768   1.274       .  A
C767        O769   1.281       .  A
C767        C800   1.481       .  S
C768        C819   1.474       .  S
C770       C1619   1.456       .  S
Fe771       O787   2.051       .  S
Fe771       O777   2.094       .  S
Fe771       O784   2.061       .  S
Fe771       O776   2.035       .  S
Fe771       O782   1.943       .  S
Fe772       O775   2.035       .  S
Fe772       O779   2.090       .  S
Fe772       O783   2.062       .  S
Fe772       O788   2.107       .  S
Fe772       O782   1.949       .  S
Fe773       O791   2.118       .  S
Fe773       O778   2.047       .  S
Fe773       O785   2.056       .  S
Fe773       O774   2.140       .  S
Fe773       O782   1.954       .  S
O774        C781   1.284       .  A
O775        C789   1.260       .  A
O776        C781   1.265       .  A
O777        C780   1.270       .  A
O778        C790   1.269       .  A
O779        C792   1.278       .  A
C780        O785   1.263       .  A
C780       C1779   1.467       .  S
C781       C1299   1.473       .  S
O783        C786   1.264       .  A
O784        C786   1.265       .  A
C786       C1920   1.463       .  S
O787        C792   1.274       .  A
O788        C790   1.280       .  A
C789        O791   1.277       .  A
C789        C803   1.476       .  S
C790        C851   1.475       .  S
C792       C1552   1.458       .  S
C793        C798   1.379       .  A
C793        C794   1.406       .  A
C793        O799   1.316       .  A
C794        C795   1.403   1_565  A
C794        H805   1.082       .  S
C795        C804   1.370       .  A
C795        C796   1.379       .  A
C796        C797   1.411   1_545  A
C796        O802   1.319       .  A
C797        C798   1.407       .  A
C797        H806   1.082       .  S
C798        C801   1.375       .  A
O799        C800   1.333       .  A
C800        C801   1.394       .  A
C801        H807   1.082       .  S
O802        C803   1.335       .  A
C803        C804   1.391       .  A
C804        H808   1.082       .  S
C809        C814   1.380       .  A
C809        C810   1.404       .  A
C809        O815   1.319       .  A
C810        C811   1.403       .  A
C810        H821   1.082       .  S
C811        C820   1.365       .  A
C811        C812   1.380       .  A
C812        C813   1.405       .  A
C812        O818   1.318       .  A
C813        C814   1.403       .  A
C813        H822   1.082       .  S
C814        C817   1.364       .  A
O815        C816   1.331       .  A
C816        C817   1.392       .  A
C817        H823   1.082       .  S
O818        C819   1.332       .  A
C819        C820   1.392       .  A
C820        H824   1.082       .  S
C825        C830   1.379       .  A
C825        C826   1.398       .  A
C825        O831   1.311       .  A
C826        C827   1.396       .  A
C826        H837   1.082       .  S
C827        C836   1.357       .  A
C827        C828   1.378       .  A
C828        C829   1.416       .  A
C828        O834   1.327       .  A
C829        C830   1.414       .  A
C829        H838   1.082       .  S
C830        C833   1.380       .  A
O831        C832   1.330       .  A
C832        C833   1.399       .  A
C833        H839   1.082       .  S
O834        C835   1.338       .  A
C835        C836   1.388       .  A
C836        H840   1.083       .  S
C841        C846   1.380       .  A
C841        C842   1.407       .  A
C841        O847   1.318       .  A
C842        C843   1.404       .  A
C842        H853   1.082       .  S
C843        C852   1.369       .  A
C843        C844   1.379       .  A
C844        C845   1.405       .  A
C844        O850   1.316       .  A
C845        C846   1.402       .  A
C845        H854   1.082       .  S
C846        C849   1.367       .  A
O847        C848   1.332       .  A
C848        C849   1.391       .  A
C849        H855   1.082       .  S
O850        C851   1.332       .  A
C851        C852   1.393       .  A
C852        H856   1.082       .  S
C857        C862   1.378       .  A
C857        C858   1.416       .  A
C857        O863   1.327       .  A
C858        C859   1.414       .  A
C858        H869   1.082       .  S
C859        C868   1.380       .  A
C859        C860   1.378       .  A
C860        C861   1.403       .  A
C860        O866   1.315       .  A
C861        C862   1.401       .  A
C861        H870   1.082       .  S
C862        C865   1.363       .  A
O863        C864   1.338       .  A
C864        C865   1.391       .  A
C865        H871   1.083       .  S
O866        C867   1.332       .  A
C867        C868   1.398       .  A
C868        H872   1.082       .  S
C873        C878   1.379       .  A
C873        C874   1.399       .  A
C873        O879   1.313       .  A
C874        C875   1.397       .  A
C874        H885   1.083       .  S
C875        C884   1.357       .  A
C875        C876   1.379       .  A
C876        C877   1.415       .  A
C876        O882   1.327       .  A
C877        C878   1.413       .  A
C877        H886   1.082       .  S
C878        C881   1.378       .  A
O879        C880   1.330       .  A
C880        C881   1.398       .  A
C881        H887   1.082       .  S
O882        C883   1.337       .  A
C883        C884   1.389       .  A
C884        H888   1.083       .  S
C889        C894   1.379       .  A
C889        C890   1.404   1_554  A
C889        O895   1.317       .  A
C890        C891   1.402       .  A
C890        H901   1.082       .  S
C891        C900   1.366       .  A
C891        C892   1.379   1_556  A
C892        C893   1.409       .  A
C892        O898   1.321   1_554  A
C893        C894   1.407       .  A
C893        H902   1.082       .  S
C894        C897   1.371       .  A
O895        C896   1.332       .  A
C896        C897   1.395       .  A
C897        H903   1.082       .  S
O898        C899   1.335       .  A
C899        C900   1.391       .  A
C900        H904   1.082       .  S
C905        C910   1.380       .  A
C905        C906   1.408   1_655  A
C905        O911   1.326       .  A
C906        C907   1.409       .  A
C906        H917   1.082       .  S
C907        C916   1.364       .  A
C907        C908   1.380       .  A
C908        C909   1.406   1_455  A
C908        O914   1.325       .  A
C909        C910   1.407       .  A
C909        H918   1.082       .  S
C910        C913   1.362       .  A
O911        C912   1.334       .  A
C912        C913   1.394       .  A
C913        H919   1.082       .  S
O914        C915   1.333       .  A
C915        C916   1.396       .  A
C916        H920   1.083       .  S
C921        C926   1.379       .  A
C921        C922   1.409       .  A
C921        O927   1.318       .  A
C922        C923   1.405       .  A
C922        H933   1.082       .  S
C923        C932   1.374       .  A
C923        C924   1.379       .  A
C924        C925   1.406       .  A
C924        O930   1.315       .  A
C925        C926   1.403       .  A
C925        H934   1.082       .  S
C926        C929   1.370       .  A
O927        C928   1.333       .  A
C928        C929   1.391       .  A
C929        H935   1.082       .  S
O930        C931   1.333       .  A
C931        C932   1.392       .  A
C932        H936   1.082       .  S
C937        C942   1.379       .  A
C937        C938   1.410       .  A
C937        O943   1.322       .  A
C938        C939   1.408       .  A
C938        H949   1.082       .  S
C939        C948   1.371       .  A
C939        C940   1.380       .  A
C940        C941   1.404       .  A
C940        O946   1.317       .  A
C941        C942   1.402       .  A
C941        H950   1.082       .  S
C942        C945   1.365       .  A
O943        C944   1.335       .  A
C944        C945   1.391       .  A
C945        H951   1.082       .  S
O946        C947   1.331       .  A
C947        C948   1.395       .  A
C948        H952   1.082       .  S
C953        C958   1.380       .  A
C953        C954   1.404       .  A
C953        O959   1.318       .  A
C954        C955   1.402       .  A
C954        H965   1.082       .  S
C955        C964   1.364       .  A
C955        C956   1.380       .  A
C956        C957   1.404       .  A
C956        O962   1.318       .  A
C957        C958   1.403       .  A
C957        H966   1.082       .  S
C958        C961   1.364       .  A
O959        C960   1.332       .  A
C960        C961   1.392       .  A
C961        H967   1.082       .  S
O962        C963   1.332       .  A
C963        C964   1.391       .  A
C964        H968   1.082       .  S
C969        C974   1.379       .  A
C969        C970   1.397       .  A
C969        O975   1.313       .  A
C970        C971   1.396   1_565  A
C970        H981   1.083       .  S
C971        C980   1.352       .  A
C971        C972   1.379       .  A
C972        C973   1.415   1_545  A
C972        O978   1.330       .  A
C973        C974   1.415       .  A
C973        H982   1.082       .  S
C974        C977   1.376       .  A
O975        C976   1.329       .  A
C976        C977   1.398       .  A
C977        H983   1.082       .  S
O978        C979   1.337       .  A
C979        C980   1.390       .  A
C980        H984   1.083       .  S
C985        C990   1.380       .  A
C985        C986   1.410       .  A
C985        O991   1.320       .  A
C986        C987   1.407       .  A
C986        H997   1.082       .  S
C987        C996   1.374       .  A
C987        C988   1.380       .  A
C988        C989   1.403       .  A
C988        O994   1.313       .  A
C989        C990   1.400       .  A
C989        H998   1.082       .  S
C990        C993   1.365       .  A
O991        C992   1.333       .  A
C992        C993   1.390       .  A
C993        H999   1.082       .  S
O994        C995   1.331       .  A
C995        C996   1.393       .  A
C996       H1000   1.082       .  S
C1001      C1006   1.381       .  A
C1001      C1002   1.405       .  A
C1001      O1007   1.319       .  A
C1002      C1003   1.403       .  A
C1002      H1013   1.082       .  S
C1003      C1012   1.366       .  A
C1003      C1004   1.382       .  A
C1004      C1005   1.398       .  A
C1004      O1010   1.313       .  A
C1005      C1006   1.397       .  A
C1005      H1014   1.083       .  S
C1006      C1009   1.357       .  A
O1007      C1008   1.331       .  A
C1008      C1009   1.389       .  A
C1009      H1015   1.083       .  S
O1010      C1011   1.327       .  A
C1011      C1012   1.390       .  A
C1012      H1016   1.082       .  S
C1017      C1022   1.379       .  A
C1017      C1018   1.413       .  A
C1017      O1023   1.328       .  A
C1018      C1019   1.413       .  A
C1018      H1029   1.082       .  S
C1019      C1028   1.374       .  A
C1019      C1020   1.379       .  A
C1020      C1021   1.401       .  A
C1020      O1026   1.316       .  A
C1021      C1022   1.399       .  A
C1021      H1030   1.083       .  S
C1022      C1025   1.358       .  A
O1023      C1024   1.336       .  A
C1024      C1025   1.390       .  A
C1025      H1031   1.083   1_455  S
O1026      C1027   1.331       .  A
C1027      C1028   1.398       .  A
C1028      H1032   1.082       .  S
C1033      C1038   1.378       .  A
C1033      C1034   1.415       .  A
C1033      O1039   1.330       .  A
C1034      C1035   1.415       .  A
C1034      H1045   1.082       .  S
C1035      C1044   1.376       .  A
C1035      C1036   1.379       .  A
C1036      C1037   1.398       .  A
C1036      O1042   1.315       .  A
C1037      C1038   1.398       .  A
C1037      H1046   1.082       .  S
C1038      C1041   1.354       .  A
O1039      C1040   1.338       .  A
C1040      C1041   1.391       .  A
C1041      H1047   1.083       .  S
O1042      C1043   1.329       .  A
C1043      C1044   1.399       .  A
C1044      H1048   1.082       .  S
C1049      C1054   1.382       .  A
C1049      C1050   1.398       .  A
C1049      O1055   1.314       .  A
C1050      C1051   1.397       .  A
C1050      H1061   1.083       .  S
C1051      C1060   1.356       .  A
C1051      C1052   1.382       .  A
C1052      C1053   1.404       .  A
C1052      O1058   1.319       .  A
C1053      C1054   1.403       .  A
C1053      H1062   1.082       .  S
C1054      C1057   1.364       .  A
O1055      C1056   1.327       .  A
C1056      C1057   1.389       .  A
C1057      H1063   1.083       .  S
O1058      C1059   1.330       .  A
C1059      C1060   1.389       .  A
C1060      H1064   1.082       .  S
C1065      C1070   1.379       .  A
C1065      C1066   1.407       .  A
C1065      O1071   1.318       .  A
C1066      C1067   1.404       .  A
C1066      H1077   1.083       .  S
C1067      C1076   1.369       .  A
C1067      C1068   1.379       .  A
C1068      C1069   1.409       .  A
C1068      O1074   1.321       .  A
C1069      C1070   1.408       .  A
C1069      H1078   1.082       .  S
C1070      C1073   1.372       .  A
O1071      C1072   1.333       .  A
C1072      C1073   1.395       .  A
C1073      H1079   1.082       .  S
O1074      C1075   1.334       .  A
C1075      C1076   1.392       .  A
C1076      H1080   1.082       .  S
C1081      C1086   1.379       .  A
C1081      C1082   1.407       .  A
C1081      O1087   1.321       .  A
C1082      C1083   1.405       .  A
C1082      H1093   1.082       .  S
C1083      C1092   1.368       .  A
C1083      C1084   1.379       .  A
C1084      C1085   1.409       .  A
C1084      O1090   1.322       .  A
C1085      C1086   1.407       .  A
C1085      H1094   1.082       .  S
C1086      C1089   1.369       .  A
O1087      C1088   1.333       .  A
C1088      C1089   1.395       .  A
C1089      H1095   1.082       .  S
O1090      C1091   1.334       .  A
C1091      C1092   1.393       .  A
C1092      H1096   1.082       .  S
C1097      C1102   1.381       .  A
C1097      C1098   1.408       .  A
C1097      O1103   1.324       .  A
C1098      C1099   1.408       .  A
C1098      H1109   1.082       .  S
C1099      C1108   1.368       .  A
C1099      C1100   1.381       .  A
C1100      C1101   1.399       .  A
C1100      O1106   1.315       .  A
C1101      C1102   1.399       .  A
C1101      H1110   1.083       .  S
C1102      C1105   1.357       .  A
O1103      C1104   1.332       .  A
C1104      C1105   1.388       .  A
C1105      H1111   1.083       .  S
O1106      C1107   1.329       .  A
C1107      C1108   1.394       .  A
C1108      H1112   1.082       .  S
C1113      C1118   1.379       .  A
C1113      C1114   1.408       .  A
C1113      O1119   1.318       .  A
C1114      C1115   1.405       .  A
C1114      H1125   1.082       .  S
C1115      C1124   1.371       .  A
C1115      C1116   1.380       .  A
C1116      C1117   1.404       .  A
C1116      O1122   1.314       .  A
C1117      C1118   1.401       .  A
C1117      H1126   1.083       .  S
C1118      C1121   1.367       .  A
O1119      C1120   1.333       .  A
C1120      C1121   1.391       .  A
C1121      H1127   1.082       .  S
O1122      C1123   1.330       .  A
C1123      C1124   1.393       .  A
C1124      H1128   1.082       .  S
C1129      C1134   1.379       .  A
C1129      C1130   1.401       .  A
C1129      O1135   1.321       .  A
C1130      C1131   1.402       .  A
C1130      H1141   1.082       .  S
C1131      C1140   1.354       .  A
C1131      C1132   1.378       .  A
C1132      C1133   1.416       .  A
C1132      O1138   1.336       .  A
C1133      C1134   1.418       .  A
C1133      H1142   1.082       .  S
C1134      C1137   1.373       .  A
O1135      C1136   1.331       .  A
C1136      C1137   1.400       .  A
C1137      H1143   1.083       .  S
O1138      C1139   1.339       .  A
C1139      C1140   1.394       .  A
C1140      H1144   1.083       .  S
C1145      C1150   1.381       .  A
C1145      C1146   1.399       .  A
C1145      O1151   1.314       .  A
C1146      C1147   1.398       .  A
C1146      H1157   1.083       .  S
C1147      C1156   1.357       .  A
C1147      C1148   1.381       .  A
C1148      C1149   1.405       .  A
C1148      O1154   1.321       .  A
C1149      C1150   1.405       .  A
C1149      H1158   1.083       .  S
C1150      C1153   1.365       .  A
O1151      C1152   1.328       .  A
C1152      C1153   1.392       .  A
C1153      H1159   1.083       .  S
O1154      C1155   1.331       .  A
C1155      C1156   1.386       .  A
C1156      H1160   1.083       .  S
C1161      C1166   1.380       .  A
C1161      C1162   1.404       .  A
C1161      O1167   1.314       .  A
C1162      C1163   1.401       .  A
C1162      H1173   1.083       .  S
C1163      C1172   1.366       .  A
C1163      C1164   1.379       .  A
C1164      C1165   1.408       .  A
C1164      O1170   1.319       .  A
C1165      C1166   1.406       .  A
C1165      H1174   1.082       .  S
C1166      C1169   1.371       .  A
O1167      C1168   1.331       .  A
C1168      C1169   1.393       .  A
C1169      H1175   1.082       .  S
O1170      C1171   1.333       .  A
C1171      C1172   1.390       .  A
C1172      H1176   1.082       .  S
C1177      C1182   1.381       .  A
C1177      C1178   1.405       .  A
C1177      O1183   1.318       .  A
C1178      C1179   1.403       .  A
C1178      H1189   1.082       .  S
C1179      C1188   1.365       .  A
C1179      C1180   1.382       .  A
C1180      C1181   1.397       .  A
C1180      O1186   1.312       .  A
C1181      C1182   1.396       .  A
C1181      H1190   1.083       .  S
C1182      C1185   1.356       .  A
O1183      C1184   1.331       .  A
C1184      C1185   1.389       .  A
C1185      H1191   1.083       .  S
O1186      C1187   1.327       .  A
C1187      C1188   1.389       .  A
C1188      H1192   1.082       .  S
C1193      C1198   1.380       .  A
C1193      C1194   1.407       .  A
C1193      O1199   1.324       .  A
C1194      C1195   1.407       .  A
C1194      H1205   1.082       .  S
C1195      C1204   1.364       .  A
C1195      C1196   1.380       .  A
C1196      C1197   1.405       .  A
C1196      O1202   1.323       .  A
C1197      C1198   1.405       .  A
C1197      H1206   1.082       .  S
C1198      C1201   1.362       .  A
O1199      C1200   1.333       .  A
C1200      C1201   1.393       .  A
C1201      H1207   1.083       .  S
O1202      C1203   1.332       .  A
C1203      C1204   1.395       .  A
C1204      H1208   1.082       .  S
C1209      C1214   1.380       .  A
C1209      C1210   1.403       .  A
C1209      O1215   1.314       .  A
C1210      C1211   1.400   1_565  A
C1210      H1221   1.082       .  S
C1211      C1220   1.364       .  A
C1211      C1212   1.379       .  A
C1212      C1213   1.410       .  A
C1212      O1218   1.321       .  A
C1213      C1214   1.408   1_545  A
C1213      H1222   1.082       .  S
C1214      C1217   1.374       .  A
O1215      C1216   1.330       .  A
C1216      C1217   1.393       .  A
C1217      H1223   1.082       .  S
O1218      C1219   1.334       .  A
C1219      C1220   1.390       .  A
C1220      H1224   1.082       .  S
C1225      C1230   1.379       .  A
C1225      C1226   1.415       .  A
C1225      O1231   1.325       .  A
C1226      C1227   1.413       .  A
C1226      H1237   1.082       .  S
C1227      C1236   1.380       .  A
C1227      C1228   1.379       .  A
C1228      C1229   1.399       .  A
C1228      O1234   1.310       .  A
C1229      C1230   1.396       .  A
C1229      H1238   1.083       .  S
C1230      C1233   1.358       .  A
O1231      C1232   1.337       .  A
C1232      C1233   1.388       .  A
C1233      H1239   1.083       .  S
O1234      C1235   1.330       .  A
C1235      C1236   1.398       .  A
C1236      H1240   1.082       .  S
C1241      C1246   1.381       .  A
C1241      C1242   1.405   1_556  A
C1241      O1247   1.318       .  A
C1242      C1243   1.404       .  A
C1242      H1253   1.083       .  S
C1243      C1252   1.366       .  A
C1243      C1244   1.382       .  A
C1244      C1245   1.395   1_554  A
C1244      O1250   1.311       .  A
C1245      C1246   1.394       .  A
C1245      H1254   1.083       .  S
C1246      C1249   1.354       .  A
O1247      C1248   1.331       .  A
C1248      C1249   1.387       .  A
C1249      H1255   1.083       .  S
O1250      C1251   1.325       .  A
C1251      C1252   1.390       .  A
C1252      H1256   1.083       .  S
C1257      C1262   1.379       .  A
C1257      C1258   1.402       .  A
C1257      O1263   1.315       .  A
C1258      C1259   1.401       .  A
C1258      H1269   1.083       .  S
C1259      C1268   1.364       .  A
C1259      C1260   1.378       .  A
C1260      C1261   1.410       .  A
C1260      O1266   1.319       .  A
C1261      C1262   1.406       .  A
C1261      H1270   1.082       .  S
C1262      C1265   1.372       .  A
O1263      C1264   1.330       .  A
C1264      C1265   1.393       .  A
C1265      H1271   1.082       .  S
O1266      C1267   1.335       .  A
C1267      C1268   1.391       .  A
C1268      H1272   1.083       .  S
C1273      C1278   1.381       .  A
C1273      C1274   1.406       .  A
C1273      O1279   1.320       .  A
C1274      C1275   1.405       .  A
C1274      H1285   1.082       .  S
C1275      C1284   1.367       .  A
C1275      C1276   1.381       .  A
C1276      C1277   1.395       .  A
C1276      O1282   1.309       .  A
C1277      C1278   1.394       .  A
C1277      H1286   1.083       .  S
C1278      C1281   1.353       .  A
O1279      C1280   1.331       .  A
C1280      C1281   1.384       .  A
C1281      H1287   1.083       .  S
O1282      C1283   1.327       .  A
C1283      C1284   1.392       .  A
C1284      H1288   1.082       .  S
C1289      C1294   1.380       .  A
C1289      C1290   1.408       .  A
C1289      O1295   1.326       .  A
C1290      C1291   1.409       .  A
C1290      H1301   1.082       .  S
C1291      C1300   1.366       .  A
C1291      C1292   1.380       .  A
C1292      C1293   1.404       .  A
C1292      O1298   1.321       .  A
C1293      C1294   1.404       .  A
C1293      H1302   1.083       .  S
C1294      C1297   1.360       .  A
O1295      C1296   1.333       .  A
C1296      C1297   1.391       .  A
C1297      H1303   1.083       .  S
O1298      C1299   1.331       .  A
C1299      C1300   1.396       .  A
C1300      H1304   1.082       .  S
C1305      C1310   1.379       .  A
C1305      C1306   1.407       .  A
C1305      O1311   1.316       .  A
C1306      C1307   1.403       .  A
C1306      H1317   1.082       .  S
C1307      C1316   1.371       .  A
C1307      C1308   1.379       .  A
C1308      C1309   1.409       .  A
C1308      O1314   1.317       .  A
C1309      C1310   1.405       .  A
C1309      H1318   1.082       .  S
C1310      C1313   1.373       .  A
O1311      C1312   1.333       .  A
C1312      C1313   1.393       .  A
C1313      H1319   1.082       .  S
O1314      C1315   1.334       .  A
C1315      C1316   1.391       .  A
C1316      H1320   1.082       .  S
C1321      C1326   1.381       .  A
C1321      C1322   1.401       .  A
C1321      O1327   1.317       .  A
C1322      C1323   1.400       .  A
C1322      H1333   1.082       .  S
C1323      C1332   1.358       .  A
C1323      C1324   1.381       .  A
C1324      C1325   1.403       .  A
C1324      O1330   1.320       .  A
C1325      C1326   1.403       .  A
C1325      H1334   1.082       .  S
C1326      C1329   1.361       .  A
O1327      C1328   1.329       .  A
C1328      C1329   1.389       .  A
C1329      H1335   1.083       .  S
O1330      C1331   1.330       .  A
C1331      C1332   1.387       .  A
C1332      H1336   1.083       .  S
C1337      C1342   1.379       .  A
C1337      C1338   1.411       .  A
C1337      O1343   1.322       .  A
C1338      C1339   1.409       .  A
C1338      H1349   1.082       .  S
C1339      C1348   1.373       .  A
C1339      C1340   1.379       .  A
C1340      C1341   1.407       .  A
C1340      O1346   1.319       .  A
C1341      C1342   1.404       .  A
C1341      H1350   1.082       .  S
C1342      C1345   1.368       .  A
O1343      C1344   1.336       .  A
C1344      C1345   1.393       .  A
C1345      H1351   1.082       .  S
O1346      C1347   1.333       .  A
C1347      C1348   1.396       .  A
C1348      H1352   1.082       .  S
C1353      C1358   1.380       .  A
C1353      C1354   1.404       .  A
C1353      O1359   1.314   1_565  A
C1354      C1355   1.400       .  A
C1354      H1365   1.083       .  S
C1355      C1364   1.366       .  A
C1355      C1356   1.380       .  A
C1356      C1357   1.407       .  A
C1356      O1362   1.318       .  A
C1357      C1358   1.404       .  A
C1357      H1366   1.082       .  S
C1358      C1361   1.370   1_565  A
O1359      C1360   1.330       .  A
C1360      C1361   1.392       .  A
C1361      H1367   1.082       .  S
O1362      C1363   1.332       .  A
C1363      C1364   1.390       .  A
C1364      H1368   1.082       .  S
C1369      C1374   1.382       .  A
C1369      C1370   1.398       .  A
C1369      O1375   1.312       .  A
C1370      C1371   1.396       .  A
C1370      H1381   1.083       .  S
C1371      C1380   1.357       .  A
C1371      C1372   1.382       .  A
C1372      C1373   1.403       .  A
C1372      O1378   1.317       .  A
C1373      C1374   1.402       .  A
C1373      H1382   1.083       .  S
C1374      C1377   1.364   1_554  A
O1375      C1376   1.326   1_554  A
C1376      C1377   1.388       .  A
C1377      H1383   1.083       .  S
O1378      C1379   1.330       .  A
C1379      C1380   1.388       .  A
C1380      H1384   1.083       .  S
C1385      C1390   1.379       .  A
C1385      C1386   1.404       .  A
C1385      O1391   1.316       .  A
C1386      C1387   1.401       .  A
C1386      H1397   1.082       .  S
C1387      C1396   1.363       .  A
C1387      C1388   1.379       .  A
C1388      C1389   1.412       .  A
C1388      O1394   1.324       .  A
C1389      C1390   1.410       .  A
C1389      H1398   1.082       .  S
C1390      C1393   1.375       .  A
O1391      C1392   1.331       .  A
C1392      C1393   1.395       .  A
C1393      H1399   1.082       .  S
O1394      C1395   1.335       .  A
C1395      C1396   1.391       .  A
C1396      H1400   1.083       .  S
C1401      C1406   1.378       .  A
C1401      C1402   1.417       .  A
C1401      O1407   1.328       .  A
C1402      C1403   1.415       .  A
C1402      H1413   1.082       .  S
C1403      C1412   1.380       .  A
C1403      C1404   1.379       .  A
C1404      C1405   1.399       .  A
C1404      O1410   1.312       .  A
C1405      C1406   1.397       .  A
C1405      H1414   1.082   1_455  S
C1406      C1409   1.357   1_455  A
O1407      C1408   1.338       .  A
C1408      C1409   1.390   1_455  A
C1409      H1415   1.083       .  S
O1410      C1411   1.330       .  A
C1411      C1412   1.399       .  A
C1412      H1416   1.082       .  S
C1417      C1422   1.380       .  A
C1417      C1418   1.405   1_554  A
C1417      O1423   1.317       .  A
C1418      C1419   1.403   1_455  A
C1418      H1429   1.082       .  S
C1419      C1428   1.366       .  A
C1419      C1420   1.380   1_556  A
C1420      C1421   1.404       .  A
C1420      O1426   1.316   1_554  A
C1421      C1422   1.401   1_655  A
C1421      H1430   1.082       .  S
C1422      C1425   1.365       .  A
O1423      C1424   1.332       .  A
C1424      C1425   1.391       .  A
C1425      H1431   1.082       .  S
O1426      C1427   1.331       .  A
C1427      C1428   1.392       .  A
C1428      H1432   1.082       .  S
C1433      C1438   1.381       .  A
C1433      C1434   1.396       .  A
C1433      O1439   1.311       .  A
C1434      C1435   1.394       .  A
C1434      H1445   1.083       .  S
C1435      C1444   1.353       .  A
C1435      C1436   1.381       .  A
C1436      C1437   1.410       .  A
C1436      O1442   1.324       .  A
C1437      C1438   1.409       .  A
C1437      H1446   1.082       .  S
C1438      C1441   1.371       .  A
O1439      C1440   1.327       .  A
C1440      C1441   1.394       .  A
C1441      H1447   1.082       .  S
O1442      C1443   1.333       .  A
C1443      C1444   1.385       .  A
C1444      H1448   1.083       .  S
C1449      C1454   1.380       .  A
C1449      C1450   1.401       .  A
C1449      O1455   1.313       .  A
C1450      C1451   1.399       .  A
C1450      H1461   1.083       .  S
C1451      C1460   1.361       .  A
C1451      C1452   1.380       .  A
C1452      C1453   1.412       .  A
C1452      O1458   1.323       .  A
C1453      C1454   1.410       .  A
C1453      H1462   1.082       .  S
C1454      C1457   1.376       .  A
O1455      C1456   1.330       .  A
C1456      C1457   1.394       .  A
C1457      H1463   1.082       .  S
O1458      C1459   1.335       .  A
C1459      C1460   1.391       .  A
C1460      H1464   1.083       .  S
C1465      C1470   1.381       .  A
C1465      C1466   1.402       .  A
C1465      O1471   1.322       .  A
C1466      C1467   1.404       .  A
C1466      H1477   1.082       .  S
C1467      C1476   1.357       .  A
C1467      C1468   1.381       .  A
C1468      C1469   1.405       .  A
C1468      O1474   1.324       .  A
C1469      C1470   1.406       .  A
C1469      H1478   1.082       .  S
C1470      C1473   1.360       .  A
O1471      C1472   1.331       .  A
C1472      C1473   1.394       .  A
C1473      H1479   1.083       .  S
O1474      C1475   1.332       .  A
C1475      C1476   1.393       .  A
C1476      H1480   1.083       .  S
C1481      C1486   1.381       .  A
C1481      C1482   1.405       .  A
C1481      O1487   1.321       .  A
C1482      C1483   1.405       .  A
C1482      H1493   1.082       .  S
C1483      C1492   1.365       .  A
C1483      C1484   1.380       .  A
C1484      C1485   1.404       .  A
C1484      O1490   1.319       .  A
C1485      C1486   1.403       .  A
C1485      H1494   1.082   1_545  S
C1486      C1489   1.362   1_545  A
O1487      C1488   1.331   1_545  A
C1488      C1489   1.389       .  A
C1489      H1495   1.082       .  S
O1490      C1491   1.331       .  A
C1491      C1492   1.391       .  A
C1492      H1496   1.083       .  S
C1497      C1502   1.380       .  A
C1497      C1498   1.404       .  A
C1497      O1503   1.322       .  A
C1498      C1499   1.404   1_565  A
C1498      H1509   1.082       .  S
C1499      C1508   1.359       .  A
C1499      C1500   1.380   1_545  A
C1500      C1501   1.404       .  A
C1500      O1506   1.322   1_565  A
C1501      C1502   1.405       .  A
C1501      H1510   1.082       .  S
C1502      C1505   1.361       .  A
O1503      C1504   1.332       .  A
C1504      C1505   1.393       .  A
C1505      H1511   1.083       .  S
O1506      C1507   1.331       .  A
C1507      C1508   1.393       .  A
C1508      H1512   1.083       .  S
C1513      C1518   1.380       .  A
C1513      C1514   1.399       .  A
C1513      O1519   1.311       .  A
C1514      C1515   1.396       .  A
C1514      H1525   1.083       .  S
C1515      C1524   1.359       .  A
C1515      C1516   1.380       .  A
C1516      C1517   1.410       .  A
C1516      O1522   1.321       .  A
C1517      C1518   1.408       .  A
C1517      H1526   1.082       .  S
C1518      C1521   1.373       .  A
O1519      C1520   1.328       .  A
C1520      C1521   1.393       .  A
C1521      H1527   1.082       .  S
O1522      C1523   1.334       .  A
C1523      C1524   1.388       .  A
C1524      H1528   1.083       .  S
C1529      C1534   1.378       .  A
C1529      C1530   1.414       .  A
C1529      O1535   1.331       .  A
C1530      C1531   1.415       .  A
C1530      H1541   1.082       .  S
C1531      C1540   1.373       .  A
C1531      C1532   1.380       .  A
C1532      C1533   1.397   1_545  A
C1532      O1538   1.314   1_545  A
C1533      C1534   1.396   1_565  A
C1533      H1542   1.083       .  S
C1534      C1537   1.350       .  A
O1535      C1536   1.337       .  A
C1536      C1537   1.390       .  A
C1537      H1543   1.083       .  S
O1538      C1539   1.329       .  A
C1539      C1540   1.398   1_565  A
C1540      H1544   1.082       .  S
C1545      C1550   1.382       .  A
C1545      C1546   1.398       .  A
C1545      O1551   1.316       .  A
C1546      C1547   1.398       .  A
C1546      H1557   1.083       .  S
C1547      C1556   1.353       .  A
C1547      C1548   1.381       .  A
C1548      C1549   1.405       .  A
C1548      O1554   1.321       .  A
C1549      C1550   1.404       .  A
C1549      H1558   1.082       .  S
C1550      C1553   1.363       .  A
O1551      C1552   1.327       .  A
C1552      C1553   1.389       .  A
C1553      H1559   1.083       .  S
O1554      C1555   1.331       .  A
C1555      C1556   1.391       .  A
C1556      H1560   1.083       .  S
C1561      C1566   1.380       .  A
C1561      C1562   1.401       .  A
C1561      O1567   1.313       .  A
C1562      C1563   1.398       .  A
C1562      H1573   1.083       .  S
C1563      C1572   1.362       .  A
C1563      C1564   1.380       .  A
C1564      C1565   1.411       .  A
C1564      O1570   1.322       .  A
C1565      C1566   1.409       .  A
C1565      H1574   1.082       .  S
C1566      C1569   1.374       .  A
O1567      C1568   1.330       .  A
C1568      C1569   1.395       .  A
C1569      H1575   1.082       .  S
O1570      C1571   1.334       .  A
C1571      C1572   1.389       .  A
C1572      H1576   1.083       .  S
C1577      C1582   1.379       .  A
C1577      C1578   1.413       .  A
C1577      O1583   1.324       .  A
C1578      C1579   1.411       .  A
C1578      H1589   1.082       .  S
C1579      C1588   1.378       .  A
C1579      C1580   1.379       .  A
C1580      C1581   1.404       .  A
C1580      O1586   1.315       .  A
C1581      C1582   1.401       .  A
C1581      H1590   1.083       .  S
C1582      C1585   1.364       .  A
O1583      C1584   1.336       .  A
C1584      C1585   1.391       .  A
C1585      H1591   1.083       .  S
O1586      C1587   1.331       .  A
C1587      C1588   1.396       .  A
C1588      H1592   1.082       .  S
C1593      C1598   1.382       .  A
C1593      C1594   1.399       .  A
C1593      O1599   1.313       .  A
C1594      C1595   1.397       .  A
C1594      H1605   1.083       .  S
C1595      C1604   1.356       .  A
C1595      C1596   1.381       .  A
C1596      C1597   1.407       .  A
C1596      O1602   1.323       .  A
C1597      C1598   1.407       .  A
C1597      H1606   1.082       .  S
C1598      C1601   1.369       .  A
O1599      C1600   1.328       .  A
C1600      C1601   1.392       .  A
C1601      H1607   1.082       .  S
O1602      C1603   1.331       .  A
C1603      C1604   1.387       .  A
C1604      H1608   1.083       .  S
C1609      C1614   1.382       .  A
C1609      C1610   1.400       .  A
C1609      O1615   1.316       .  A
C1610      C1611   1.399       .  A
C1610      H1621   1.083       .  S
C1611      C1620   1.357       .  A
C1611      C1612   1.382       .  A
C1612      C1613   1.401       .  A
C1612      O1618   1.318       .  A
C1613      C1614   1.401       .  A
C1613      H1622   1.082       .  S
C1614      C1617   1.360       .  A
O1615      C1616   1.328       .  A
C1616      C1617   1.391       .  A
C1617      H1623   1.083       .  S
O1618      C1619   1.328       .  A
C1619      C1620   1.387       .  A
C1620      H1624   1.083       .  S
C1625      C1630   1.380       .  A
C1625      C1626   1.409   1_655  A
C1625      O1631   1.329       .  A
C1626      C1627   1.411       .  A
C1626      H1637   1.082       .  S
C1627      C1636   1.364       .  A
C1627      C1628   1.381       .  A
C1628      C1629   1.400       .  A
C1628      O1634   1.321       .  A
C1629      C1630   1.402   1_455  A
C1629      H1638   1.082       .  S
C1630      C1633   1.352       .  A
O1631      C1632   1.334       .  A
C1632      C1633   1.391       .  A
C1633      H1639   1.081       .  S
O1634      C1635   1.329       .  A
C1635      C1636   1.395       .  A
C1636      H1640   1.082       .  S
C1641      C1646   1.380       .  A
C1641      C1642   1.404       .  A
C1641      O1647   1.314       .  A
C1642      C1643   1.401       .  A
C1642      H1653   1.083       .  S
C1643      C1652   1.367       .  A
C1643      C1644   1.380       .  A
C1644      C1645   1.408       .  A
C1644      O1650   1.318       .  A
C1645      C1646   1.405       .  A
C1645      H1654   1.082       .  S
C1646      C1649   1.373       .  A
O1647      C1648   1.331       .  A
C1648      C1649   1.393       .  A
C1649      H1655   1.082       .  S
O1650      C1651   1.333       .  A
C1651      C1652   1.391       .  A
C1652      H1656   1.083       .  S
C1657      C1662   1.379       .  A
C1657      C1658   1.398       .  A
C1657      O1663   1.311       .  A
C1658      C1659   1.396       .  A
C1658      H1669   1.083       .  S
C1659      C1668   1.358       .  A
C1659      C1660   1.378       .  A
C1660      C1661   1.416       .  A
C1660      O1666   1.327       .  A
C1661      C1662   1.414       .  A
C1661      H1670   1.082       .  S
C1662      C1665   1.380       .  A
O1663      C1664   1.330       .  A
C1664      C1665   1.398       .  A
C1665      H1671   1.082       .  S
O1666      C1667   1.337       .  A
C1667      C1668   1.389       .  A
C1668      H1672   1.083       .  S
C1673      C1678   1.381       .  A
C1673      C1674   1.406       .  A
C1673      O1679   1.322   1_554  A
C1674      C1675   1.406       .  A
C1674      H1685   1.082       .  S
C1675      C1684   1.366       .  A
C1675      C1676   1.381       .  A
C1676      C1677   1.399       .  A
C1676      O1682   1.315       .  A
C1677      C1678   1.398       .  A
C1677      H1686   1.083       .  S
C1678      C1681   1.356   1_655  A
O1679      C1680   1.331       .  A
C1680      C1681   1.388   1_656  A
C1681      H1687   1.083       .  S
O1682      C1683   1.328       .  A
C1683      C1684   1.393       .  A
C1684      H1688   1.083       .  S
C1689      C1694   1.381       .  A
C1689      C1690   1.409       .  A
C1689      O1695   1.324       .  A
C1690      C1691   1.408   1_554  A
C1690      H1701   1.082       .  S
C1691      C1700   1.369       .  A
C1691      C1692   1.381       .  A
C1692      C1693   1.397       .  A
C1692      O1698   1.314       .  A
C1693      C1694   1.397   1_556  A
C1693      H1702   1.083       .  S
C1694      C1697   1.354       .  A
O1695      C1696   1.333       .  A
C1696      C1697   1.387       .  A
C1697      H1703   1.083   1_565  S
O1698      C1699   1.328       .  A
C1699      C1700   1.394       .  A
C1700      H1704   1.082       .  S
C1705      C1710   1.379       .  A
C1705      C1706   1.408       .  A
C1705      O1711   1.320       .  A
C1706      C1707   1.405       .  A
C1706      H1717   1.082       .  S
C1707      C1716   1.369       .  A
C1707      C1708   1.379       .  A
C1708      C1709   1.404       .  A
C1708      O1714   1.318       .  A
C1709      C1710   1.403       .  A
C1709      H1718   1.083       .  S
C1710      C1713   1.364       .  A
O1711      C1712   1.334       .  A
C1712      C1713   1.392       .  A
C1713      H1719   1.083       .  S
O1714      C1715   1.331       .  A
C1715      C1716   1.392       .  A
C1716      H1720   1.082       .  S
C1721      C1726   1.380       .  A
C1721      C1722   1.401       .  A
C1721      O1727   1.314       .  A
C1722      C1723   1.400       .  A
C1722      H1733   1.083       .  S
C1723      C1732   1.360       .  A
C1723      C1724   1.379       .  A
C1724      C1725   1.410       .  A
C1724      O1730   1.321       .  A
C1725      C1726   1.407       .  A
C1725      H1734   1.082       .  S
C1726      C1729   1.372       .  A
O1727      C1728   1.329       .  A
C1728      C1729   1.393       .  A
C1729      H1735   1.082       .  S
O1730      C1731   1.335       .  A
C1731      C1732   1.390       .  A
C1732      H1736   1.083       .  S
C1737      C1742   1.381       .  A
C1737      C1738   1.403       .  A
C1737      O1743   1.319       .  A
C1738      C1739   1.403       .  A
C1738      H1749   1.082       .  S
C1739      C1748   1.363       .  A
C1739      C1740   1.381       .  A
C1740      C1741   1.401       .  A
C1740      O1746   1.316       .  A
C1741      C1742   1.400       .  A
C1741      H1750   1.082       .  S
C1742      C1745   1.360       .  A
O1743      C1744   1.329       .  A
C1744      C1745   1.388       .  A
C1745      H1751   1.083       .  S
O1746      C1747   1.330       .  A
C1747      C1748   1.389       .  A
C1748      H1752   1.083       .  S
C1753      C1758   1.381       .  A
C1753      C1754   1.403       .  A
C1753      O1759   1.319       .  A
C1754      C1755   1.402       .  A
C1754      H1765   1.082       .  S
C1755      C1764   1.362       .  A
C1755      C1756   1.382       .  A
C1756      C1757   1.398       .  A
C1756      O1762   1.315       .  A
C1757      C1758   1.398       .  A
C1757      H1766   1.083       .  S
C1758      C1761   1.354       .  A
O1759      C1760   1.331       .  A
C1760      C1761   1.390       .  A
C1761      H1767   1.083       .  S
O1762      C1763   1.326       .  A
C1763      C1764   1.388       .  A
C1764      H1768   1.083       .  S
C1769      C1774   1.380       .  A
C1769      C1770   1.406       .  A
C1769      O1775   1.318       .  A
C1770      C1771   1.403       .  A
C1770      H1781   1.082       .  S
C1771      C1780   1.366       .  A
C1771      C1772   1.380       .  A
C1772      C1773   1.403       .  A
C1772      O1778   1.318       .  A
C1773      C1774   1.403       .  A
C1773      H1782   1.082       .  S
C1774      C1777   1.364       .  A
O1775      C1776   1.333       .  A
C1776      C1777   1.391       .  A
C1777      H1783   1.083       .  S
O1778      C1779   1.330       .  A
C1779      C1780   1.390       .  A
C1780      H1784   1.082       .  S
C1785      C1790   1.380       .  A
C1785      C1786   1.409       .  A
C1785      O1791   1.327       .  A
C1786      C1787   1.410       .  A
C1786      H1797   1.082       .  S
C1787      C1796   1.365       .  A
C1787      C1788   1.380       .  A
C1788      C1789   1.404       .  A
C1788      O1794   1.324       .  A
C1789      C1790   1.405       .  A
C1789      H1798   1.082       .  S
C1790      C1793   1.360       .  A
O1791      C1792   1.335       .  A
C1792      C1793   1.394       .  A
C1793      H1799   1.083       .  S
O1794      C1795   1.332       .  A
C1795      C1796   1.396       .  A
C1796      H1800   1.082       .  S
C1801      C1806   1.379       .  A
C1801      C1802   1.408       .  A
C1801      O1807   1.319       .  A
C1802      C1803   1.405       .  A
C1802      H1813   1.082       .  S
C1803      C1812   1.369       .  A
C1803      C1804   1.380       .  A
C1804      C1805   1.403       .  A
C1804      O1810   1.317       .  A
C1805      C1806   1.402       .  A
C1805      H1814   1.083       .  S
C1806      C1809   1.363       .  A
O1807      C1808   1.334       .  A
C1808      C1809   1.391       .  A
C1809      H1815   1.083       .  S
O1810      C1811   1.331       .  A
C1811      C1812   1.391       .  A
C1812      H1816   1.082       .  S
C1817      C1822   1.379       .  A
C1817      C1818   1.407   1_455  A
C1817      O1823   1.316       .  A
C1818      C1819   1.403       .  A
C1818      H1829   1.082   1_655  S
C1819      C1828   1.371       .  A
C1819      C1820   1.379       .  A
C1820      C1821   1.409       .  A
C1820      O1826   1.318       .  A
C1821      C1822   1.405   1_655  A
C1821      H1830   1.082       .  S
C1822      C1825   1.373       .  A
O1823      C1824   1.333       .  A
C1824      C1825   1.393       .  A
C1825      H1831   1.082       .  S
O1826      C1827   1.334       .  A
C1827      C1828   1.391       .  A
C1828      H1832   1.082       .  S
C1833      C1838   1.382       .  A
C1833      C1834   1.406       .  A
C1833      O1839   1.322       .  A
C1834      C1835   1.405       .  A
C1834      H1845   1.082       .  S
C1835      C1844   1.365       .  A
C1835      C1836   1.382       .  A
C1836      C1837   1.397       .  A
C1836      O1842   1.314       .  A
C1837      C1838   1.397       .  A
C1837      H1846   1.083       .  S
C1838      C1841   1.354       .  A
O1839      C1840   1.331       .  A
C1840      C1841   1.388       .  A
C1841      H1847   1.083       .  S
O1842      C1843   1.326       .  A
C1843      C1844   1.390       .  A
C1844      H1848   1.083       .  S
C1849      C1854   1.381       .  A
C1849      C1850   1.404       .  A
C1849      O1855   1.319       .  A
C1850      C1851   1.404       .  A
C1850      H1861   1.082       .  S
C1851      C1860   1.364       .  A
C1851      C1852   1.381       .  A
C1852      C1853   1.401       .  A
C1852      O1858   1.316       .  A
C1853      C1854   1.400       .  A
C1853      H1862   1.083       .  S
C1854      C1857   1.360       .  A
O1855      C1856   1.330       .  A
C1856      C1857   1.387       .  A
C1857      H1863   1.083       .  S
O1858      C1859   1.329       .  A
C1859      C1860   1.391       .  A
C1860      H1864   1.083       .  S
C1865      C1870   1.381       .  A
C1865      C1866   1.400       .  A
C1865      O1871   1.321       .  A
C1866      C1867   1.402       .  A
C1866      H1877   1.083       .  S
C1867      C1876   1.354       .  A
C1867      C1868   1.380       .  A
C1868      C1869   1.409       .  A
C1868      O1874   1.328       .  A
C1869      C1870   1.410       .  A
C1869      H1878   1.082       .  S
C1870      C1873   1.365       .  A
O1871      C1872   1.330       .  A
C1872      C1873   1.396       .  A
C1873      H1879   1.083       .  S
O1874      C1875   1.334       .  A
C1875      C1876   1.390       .  A
C1876      H1880   1.082       .  S
C1881      C1886   1.380       .  A
C1881      C1882   1.404       .  A
C1881      O1887   1.325       .  A
C1882      C1883   1.406       .  A
C1882      H1893   1.082       .  S
C1883      C1892   1.359       .  A
C1883      C1884   1.381       .  A
C1884      C1885   1.403       .  A
C1884      O1890   1.323       .  A
C1885      C1886   1.404       .  A
C1885      H1894   1.082       .  S
C1886      C1889   1.356       .  A
O1887      C1888   1.331       .  A
C1888      C1889   1.391       .  A
C1889      H1895   1.081       .  S
O1890      C1891   1.331       .  A
C1891      C1892   1.392       .  A
C1892      H1896   1.083       .  S
C1897      C1902   1.381       .  A
C1897      C1898   1.398       .  A
C1897      O1903   1.316       .  A
C1898      C1899   1.398       .  A
C1898      H1909   1.082       .  S
C1899      C1908   1.354       .  A
C1899      C1900   1.380       .  A
C1900      C1901   1.411       .  A
C1900      O1906   1.326       .  A
C1901      C1902   1.411       .  A
C1901      H1910   1.082       .  S
C1902      C1905   1.370       .  A
O1903      C1904   1.327       .  A
C1904      C1905   1.394       .  A
C1905      H1911   1.082       .  S
O1906      C1907   1.335       .  A
C1907      C1908   1.390       .  A
C1908      H1912   1.083       .  S
C1913      C1918   1.381       .  A
C1913      C1914   1.404       .  A
C1913      O1919   1.319       .  A
C1914      C1915   1.403       .  A
C1914      H1925   1.082       .  S
C1915      C1924   1.362       .  A
C1915      C1916   1.381       .  A
C1916      C1917   1.402       .  A
C1916      O1922   1.318       .  A
C1917      C1918   1.401       .  A
C1917      H1926   1.082       .  S
C1918      C1921   1.361       .  A
O1919      C1920   1.331       .  A
C1920      C1921   1.390       .  A
C1921      H1927   1.083       .  S
O1922      C1923   1.328       .  A
C1923      C1924   1.390       .  A
C1924      H1928   1.083       .  S
C1929      C1934   1.379       .  A
C1929      C1930   1.407       .  A
C1929      O1935   1.327   1_655  A
C1930      C1931   1.408       .  A
C1930      H1941   1.082       .  S
C1931      C1940   1.363       .  A
C1931      C1932   1.380       .  A
C1932      C1933   1.406       .  A
C1932      O1938   1.326       .  A
C1933      C1934   1.408       .  A
C1933      H1942   1.082       .  S
C1934      C1937   1.361   1_655  A
O1935      C1936   1.334       .  A
C1936      C1937   1.395       .  A
C1937      H1943   1.081       .  S
O1938      C1939   1.333       .  A
C1939      C1940   1.394       .  A
C1940      H1944   1.083       .  S
C1945      C1950   1.380       .  A
C1945      C1946   1.406       .  A
C1945      O1951   1.319       .  A
C1946      C1947   1.404       .  A
C1946      H1957   1.082       .  S
C1947      C1956   1.366       .  A
C1947      C1948   1.380       .  A
C1948      C1949   1.405       .  A
C1948      O1954   1.318       .  A
C1949      C1950   1.403       .  A
C1949      H1958   1.082       .  S
C1950      C1953   1.364       .  A
O1951      C1952   1.332       .  A
C1952      C1953   1.392       .  A
C1953      H1959   1.082       .  S
O1954      C1955   1.332       .  A
C1955      C1956   1.392       .  A
C1956      H1960   1.082       .  S
C1961      C1966   1.381       .  A
C1961      C1962   1.401   1_545  A
C1961      O1967   1.320       .  A
C1962      C1963   1.402       .  A
C1962      H1973   1.083       .  S
C1963      C1972   1.355       .  A
C1963      C1964   1.380       .  A
C1964      C1965   1.409       .  A
C1964      O1970   1.328       .  A
C1965      C1966   1.410   1_565  A
C1965      H1974   1.082       .  S
C1966      C1969   1.366       .  A
O1967      C1968   1.330       .  A
C1968      C1969   1.394       .  A
C1969      H1975   1.083       .  S
O1970      C1971   1.334       .  A
C1971      C1972   1.390       .  A
C1972      H1976   1.081       .  S
C1977      C1982   1.377       .  A
C1977      C1978   1.422       .  A
C1977      O1983   1.336       .  A
C1978      C1979   1.422       .  A
C1978      H1989   1.082       .  S
C1979      C1988   1.384       .  A
C1979      C1980   1.379       .  A
C1980      C1981   1.398       .  A
C1980      O1986   1.315       .  A
C1981      C1982   1.397       .  A
C1981      H1990   1.082       .  S
C1982      C1985   1.354       .  A
O1983      C1984   1.342       .  A
C1984      C1985   1.391       .  A
C1985      H1991   1.083       .  S
O1986      C1987   1.329       .  A
C1987      C1988   1.403       .  A
C1988      H1992   1.082       .  S
C1993      C1998   1.382       .  A
C1993      C1994   1.405       .  A
C1993      O1999   1.321       .  A
C1994      C1995   1.405       .  A
C1994      H2005   1.082       .  S
C1995      C2004   1.364       .  A
C1995      C1996   1.382       .  A
C1996      C1997   1.396       .  A
C1996      O2002   1.312       .  A
C1997      C1998   1.395       .  A
C1997      H2006   1.083       .  S
C1998      C2001   1.352       .  A
O1999      C2000   1.330       .  A
C2000      C2001   1.386       .  A
C2001      H2007   1.083       .  S
O2002      C2003   1.327       .  A
C2003      C2004   1.392       .  A
C2004      H2008   1.082       .  S
C2009      C2014   1.382   1_455  A
C2009      C2010   1.403       .  A
C2009      O2015   1.319       .  A
C2010      C2011   1.403       .  A
C2010      H2021   1.082       .  S
C2011      C2020   1.363       .  A
C2011      C2012   1.382       .  A
C2012      C2013   1.398   1_455  A
C2012      O2018   1.313       .  A
C2013      C2014   1.397       .  A
C2013      H2022   1.083       .  S
C2014      C2017   1.356       .  A
O2015      C2016   1.329   1_455  A
C2016      C2017   1.386       .  A
C2017      H2023   1.083       .  S
O2018      C2019   1.328       .  A
C2019      C2020   1.392       .  A
C2020      H2024   1.083       .  S
C2025      C2030   1.380       .  A
C2025      C2026   1.404       .  A
C2025      O2031   1.315       .  A
C2026      C2027   1.401       .  A
C2026      H2037   1.082       .  S
C2027      C2036   1.366       .  A
C2027      C2028   1.380       .  A
C2028      C2029   1.408       .  A
C2028      O2034   1.319       .  A
C2029      C2030   1.406       .  A
C2029      H2038   1.082       .  S
C2030      C2033   1.372       .  A
O2031      C2032   1.331       .  A
C2032      C2033   1.393       .  A
C2033      H2039   1.082       .  S
O2034      C2035   1.333       .  A
C2035      C2036   1.390       .  A
C2036      H2040   1.082       .  S
C2041      C2046   1.380   1_544  A
C2041      C2042   1.407       .  A
C2041      O2047   1.320       .  A
C2042      C2043   1.406   1_545  A
C2042      H2053   1.082       .  S
C2043      C2052   1.368       .  A
C2043      C2044   1.380       .  A
C2044      C2045   1.405   1_554  A
C2044      O2050   1.319       .  A
C2045      C2046   1.403       .  A
C2045      H2054   1.082       .  S
C2046      C2049   1.366   1_565  A
O2047      C2048   1.333   1_554  A
C2048      C2049   1.392       .  A
C2049      H2055   1.082       .  S
O2050      C2051   1.332       .  A
C2051      C2052   1.394       .  A
C2052      H2056   1.082       .  S
C2057      C2062   1.379       .  A
C2057      C2058   1.404       .  A
C2057      O2063   1.315       .  A
C2058      C2059   1.401       .  A
C2058      H2069   1.083       .  S
C2059      C2068   1.366       .  A
C2059      C2060   1.379       .  A
C2060      C2061   1.410       .  A
C2060      O2066   1.321       .  A
C2061      C2062   1.408       .  A
C2061      H2070   1.082       .  S
C2062      C2065   1.374       .  A
O2063      C2064   1.331       .  A
C2064      C2065   1.394       .  A
C2065      H2071   1.082       .  S
O2066      C2067   1.334       .  A
C2067      C2068   1.391       .  A
C2068      H2072   1.083       .  S
C2073      C2078   1.381       .  A
C2073      C2074   1.406       .  A
C2073      O2079   1.319       .  A
C2074      C2075   1.404       .  A
C2074      H2085   1.082       .  S
C2075      C2084   1.367       .  A
C2075      C2076   1.381       .  A
C2076      C2077   1.400       .  A
C2076      O2082   1.314       .  A
C2077      C2078   1.398       .  A
C2077      H2086   1.082       .  S
C2078      C2081   1.358       .  A
O2079      C2080   1.331       .  A
C2080      C2081   1.390       .  A
C2081      H2087   1.083       .  S
O2082      C2083   1.328       .  A
C2083      C2084   1.390       .  A
C2084      H2088   1.082       .  S
C2089      C2094   1.382       .  A
C2089      C2090   1.397       .  A
C2089      O2095   1.312       .  A
C2090      C2091   1.396       .  A
C2090      H2101   1.083       .  S
C2091      C2100   1.355       .  A
C2091      C2092   1.381       .  A
C2092      C2093   1.406       .  A
C2092      O2098   1.320       .  A
C2093      C2094   1.405       .  A
C2093      H2102   1.082       .  S
C2094      C2097   1.367       .  A
O2095      C2096   1.326       .  A
C2096      C2097   1.390       .  A
C2097      H2103   1.083       .  S
O2098      C2099   1.332       .  A
C2099      C2100   1.389       .  A
C2100      H2104   1.083       .  S
C2105      C2110   1.381   1_455  A
C2105      C2106   1.405   1_455  A
C2105      O2111   1.325       .  A
C2106      C2107   1.407       .  A
C2106      H2117   1.082       .  S
C2107      C2116   1.360       .  A
C2107      C2108   1.381       .  A
C2108      C2109   1.402       .  A
C2108      O2114   1.323       .  A
C2109      C2110   1.404       .  A
C2109      H2118   1.082       .  S
C2110      C2113   1.356   1_655  A
O2111      C2112   1.332       .  A
C2112      C2113   1.390       .  A
C2113      H2119   1.082       .  S
O2114      C2115   1.331       .  A
C2115      C2116   1.393       .  A
C2116      H2120   1.083       .  S
C2121      C2126   1.378       .  A
C2121      C2122   1.407       .  A
C2121      O2127   1.317       .  A
C2122      C2123   1.404       .  A
C2122      H2133   1.082       .  S
C2123      C2132   1.369       .  A
C2123      C2124   1.379       .  A
C2124      C2125   1.410       .  A
C2124      O2130   1.321       .  A
C2125      C2126   1.408       .  A
C2125      H2134   1.082       .  S
C2126      C2129   1.373       .  A
O2127      C2128   1.333       .  A
C2128      C2129   1.394       .  A
C2129      H2135   1.082       .  S
O2130      C2131   1.334       .  A
C2131      C2132   1.393       .  A
C2132      H2136   1.082       .  S
C2137      C2142   1.378       .  A
C2137      C2138   1.414       .  A
C2137      O2143   1.325       .  A
C2138      C2139   1.412       .  A
C2138      H2149   1.082       .  S
C2139      C2148   1.379       .  A
C2139      C2140   1.378       .  A
C2140      C2141   1.404       .  A
C2140      O2146   1.314       .  A
C2141      C2142   1.401       .  A
C2141      H2150   1.082       .  S
C2142      C2145   1.364   1_545  A
O2143      C2144   1.336   1_545  A
C2144      C2145   1.391       .  A
C2145      H2151   1.083       .  S
O2146      C2147   1.332       .  A
C2147      C2148   1.397       .  A
C2148      H2152   1.082       .  S
C2153      C2158   1.382   1_565  A
C2153      C2154   1.400       .  A
C2153      O2159   1.315   1_554  A
C2154      C2155   1.399   1_565  A
C2154      H2165   1.083       .  S
C2155      C2164   1.359       .  A
C2155      C2156   1.381       .  A
C2156      C2157   1.406       .  A
C2156      O2162   1.321       .  A
C2157      C2158   1.405       .  A
C2157      H2166   1.083       .  S
C2158      C2161   1.366   1_554  A
O2159      C2160   1.328       .  A
C2160      C2161   1.391   1_565  A
C2161      H2167   1.083       .  S
O2162      C2163   1.332       .  A
C2163      C2164   1.390       .  A
C2164      H2168   1.083       .  S
C2169      C2174   1.381       .  A
C2169      C2170   1.407   1_556  A
C2169      O2175   1.323       .  A
C2170      C2171   1.407       .  A
C2170      H2181   1.082       .  S
C2171      C2180   1.367       .  A
C2171      C2172   1.381       .  A
C2172      C2173   1.399   1_554  A
C2172      O2178   1.316   1_455  A
C2173      C2174   1.399       .  A
C2173      H2182   1.083   1_455  S
C2174      C2177   1.356       .  A
O2175      C2176   1.333       .  A
C2176      C2177   1.390       .  A
C2177      H2183   1.082       .  S
O2178      C2179   1.328       .  A
C2179      C2180   1.392   1_655  A
C2180      H2184   1.083       .  S
C2185      C2190   1.380       .  A
C2185      C2186   1.406       .  A
C2185      O2191   1.326       .  A
C2186      C2187   1.407       .  A
C2186      H2197   1.082       .  S
C2187      C2196   1.361       .  A
C2187      C2188   1.381       .  A
C2188      C2189   1.403       .  A
C2188      O2194   1.324       .  A
C2189      C2190   1.405       .  A
C2189      H2198   1.082       .  S
C2190      C2193   1.357       .  A
O2191      C2192   1.332       .  A
C2192      C2193   1.391       .  A
C2193      H2199   1.081       .  S
O2194      C2195   1.331       .  A
C2195      C2196   1.393       .  A
C2196      H2200   1.083       .  S
C2201      C2206   1.379       .  A
C2201      C2202   1.406       .  A
C2201      O2207   1.318       .  A
C2202      C2203   1.404       .  A
C2202      H2213   1.082       .  S
C2203      C2212   1.367       .  A
C2203      C2204   1.379       .  A
C2204      C2205   1.410       .  A
C2204      O2210   1.322       .  A
C2205      C2206   1.408       .  A
C2205      H2214   1.082       .  S
C2206      C2209   1.371       .  A
O2207      C2208   1.332       .  A
C2208      C2209   1.395       .  A
C2209      H2215   1.082       .  S
O2210      C2211   1.335       .  A
C2211      C2212   1.393       .  A
C2212      H2216   1.082       .  S
C2217      C2222   1.379       .  A
C2217      C2218   1.403       .  A
C2217      O2223   1.315       .  A
C2218      C2219   1.400       .  A
C2218      H2229   1.083       .  S
C2219      C2228   1.364       .  A
C2219      C2220   1.379       .  A
C2220      C2221   1.412       .  A
C2220      O2226   1.323       .  A
C2221      C2222   1.409       .  A
C2221      H2230   1.082       .  S
C2222      C2225   1.375       .  A
O2223      C2224   1.331       .  A
C2224      C2225   1.395       .  A
C2225      H2231   1.082       .  S
O2226      C2227   1.335       .  A
C2227      C2228   1.391       .  A
C2228      H2232   1.083       .  S
C2233      C2238   1.382       .  A
C2233      C2234   1.397       .  A
C2233      O2239   1.312       .  A
C2234      C2235   1.396       .  A
C2234      H2245   1.082       .  S
C2235      C2244   1.355       .  A
C2235      C2236   1.381       .  A
C2236      C2237   1.405       .  A
C2236      O2242   1.319       .  A
C2237      C2238   1.404       .  A
C2237      H2246   1.082       .  S
C2238      C2241   1.365       .  A
O2239      C2240   1.327       .  A
C2240      C2241   1.390       .  A
C2241      H2247   1.083       .  S
O2242      C2243   1.331       .  A
C2243      C2244   1.389       .  A
C2244      H2248   1.083       .  S
C2249      C2254   1.382       .  A
C2249      C2250   1.398       .  A
C2249      O2255   1.314       .  A
C2250      C2251   1.398       .  A
C2250      H2261   1.083       .  S
C2251      C2260   1.355       .  A
C2251      C2252   1.382       .  A
C2252      C2253   1.406       .  A
C2252      O2258   1.323       .  A
C2253      C2254   1.406       .  A
C2253      H2262   1.082       .  S
C2254      C2257   1.365       .  A
O2255      C2256   1.328       .  A
C2256      C2257   1.393       .  A
C2257      H2263   1.083       .  S
O2258      C2259   1.331       .  A
C2259      C2260   1.387       .  A
C2260      H2264   1.083       .  S
C2265      C2270   1.380       .  A
C2265      C2266   1.408       .  A
C2265      O2271   1.320       .  A
C2266      C2267   1.406       .  A
C2266      H2277   1.083       .  S
C2267      C2276   1.371       .  A
C2267      C2268   1.380       .  A
C2268      C2269   1.403       .  A
C2268      O2274   1.314       .  A
C2269      C2270   1.400       .  A
C2269      H2278   1.083       .  S
C2270      C2273   1.365       .  A
O2271      C2272   1.333       .  A
C2272      C2273   1.390       .  A
C2273      H2279   1.082       .  S
O2274      C2275   1.330       .  A
C2275      C2276   1.392       .  A
C2276      H2280   1.083       .  S
C2281      C2286   1.381       .  A
C2281      C2282   1.402       .  A
C2281      O2287   1.323       .  A
C2282      C2283   1.404       .  A
C2282      H2293   1.082       .  S
C2283      C2292   1.356       .  A
C2283      C2284   1.380       .  A
C2284      C2285   1.404       .  A
C2284      O2290   1.324       .  A
C2285      C2286   1.406       .  A
C2285      H2294   1.082       .  S
C2286      C2289   1.359       .  A
O2287      C2288   1.330       .  A
C2288      C2289   1.392       .  A
C2289      H2295   1.083       .  S
O2290      C2291   1.332       .  A
C2291      C2292   1.391       .  A
C2292      H2296   1.081       .  S
C2297      C2302   1.379       .  A
C2297      C2298   1.415   1_455  A
C2297      O2303   1.329       .  A
C2298      C2299   1.415       .  A
C2298      H2309   1.082       .  S
C2299      C2308   1.378       .  A
C2299      C2300   1.379       .  A
C2300      C2301   1.396       .  A
C2300      O2306   1.311       .  A
C2301      C2302   1.395   1_655  A
C2301      H2310   1.083       .  S
C2302      C2305   1.352       .  A
O2303      C2304   1.337       .  A
C2304      C2305   1.389       .  A
C2305      H2311   1.083       .  S
O2306      C2307   1.328       .  A
C2307      C2308   1.398       .  A
C2308      H2312   1.082       .  S
C2313      C2318   1.381       .  A
C2313      C2314   1.405       .  A
C2313      O2319   1.321       .  A
C2314      C2315   1.405       .  A
C2314      H2325   1.083       .  S
C2315      C2324   1.364       .  A
C2315      C2316   1.381       .  A
C2316      C2317   1.399       .  A
C2316      O2322   1.315       .  A
C2317      C2318   1.398       .  A
C2317      H2326   1.083       .  S
C2318      C2321   1.357       .  A
O2319      C2320   1.331       .  A
C2320      C2321   1.386       .  A
C2321      H2327   1.083       .  S
O2322      C2323   1.328       .  A
C2323      C2324   1.393       .  A
C2324      H2328   1.083       .  S
C2329      C2334   1.381       .  A
C2329      C2330   1.406       .  A
C2329      O2335   1.320       .  A
C2330      C2331   1.405       .  A
C2330      H2341   1.082       .  S
C2331      C2340   1.366       .  A
C2331      C2332   1.382       .  A
C2332      C2333   1.398       .  A
C2332      O2338   1.313       .  A
C2333      C2334   1.397       .  A
C2333      H2342   1.083       .  S
C2334      C2337   1.356       .  A
O2335      C2336   1.332       .  A
C2336      C2337   1.389       .  A
C2337      H2343   1.083       .  S
O2338      C2339   1.327       .  A
C2339      C2340   1.391       .  A
C2340      H2344   1.083       .  S
C2345      C2350   1.379       .  A
C2345      C2346   1.409       .  A
C2345      O2351   1.319       .  A
C2346      C2347   1.406   1_455  A
C2346      H2357   1.082       .  S
C2347      C2356   1.372       .  A
C2347      C2348   1.379       .  A
C2348      C2349   1.408   1_655  A
C2348      O2354   1.318       .  A
C2349      C2350   1.404       .  A
C2349      H2358   1.082       .  S
C2350      C2353   1.370       .  A
O2351      C2352   1.333       .  A
C2352      C2353   1.393       .  A
C2353      H2359   1.082       .  S
O2354      C2355   1.334       .  A
C2355      C2356   1.394       .  A
C2356      H2360   1.082       .  S
C2361      C2366   1.381       .  A
C2361      C2362   1.403       .  A
C2361      O2367   1.323       .  A
C2362      C2363   1.404       .  A
C2362      H2373   1.082       .  S
C2363      C2372   1.358       .  A
C2363      C2364   1.381       .  A
C2364      C2365   1.401       .  A
C2364      O2370   1.321       .  A
C2365      C2366   1.403       .  A
C2365      H2374   1.082       .  S
C2366      C2369   1.355       .  A
O2367      C2368   1.331       .  A
C2368      C2369   1.392       .  A
C2369      H2375   1.083       .  S
O2370      C2371   1.330       .  A
C2371      C2372   1.393       .  A
C2372      H2376   1.083       .  S
C2377      C2382   1.381       .  A
C2377      C2378   1.404       .  A
C2377      O2383   1.322   1_565  A
C2378      C2379   1.404       .  A
C2378      H2389   1.082       .  S
C2379      C2388   1.359       .  A
C2379      C2380   1.381       .  A
C2380      C2381   1.398       .  A
C2380      O2386   1.320       .  A
C2381      C2382   1.401       .  A
C2381      H2390   1.082       .  S
C2382      C2385   1.354   1_565  A
O2383      C2384   1.331       .  A
C2384      C2385   1.393       .  A
C2385      H2391   1.083       .  S
O2386      C2387   1.327       .  A
C2387      C2388   1.390       .  A
C2388      H2392   1.083       .  S
C2393      C2398   1.381       .  A
C2393      C2394   1.405       .  A
C2393      O2399   1.319       .  A
C2394      C2395   1.404       .  A
C2394      H2405   1.083       .  S
C2395      C2404   1.366       .  A
C2395      C2396   1.382       .  A
C2396      C2397   1.397       .  A
C2396      O2402   1.312   1_655  A
C2397      C2398   1.396       .  A
C2397      H2406   1.083   1_655  S
C2398      C2401   1.356       .  A
O2399      C2400   1.331       .  A
C2400      C2401   1.388       .  A
C2401      H2407   1.082       .  S
O2402      C2403   1.326       .  A
C2403      C2404   1.390   1_455  A
C2404      H2408   1.083       .  S
C2409      C2414   1.381       .  A
C2409      C2410   1.408       .  A
C2409      O2415   1.323       .  A
C2410      C2411   1.407       .  A
C2410      H2421   1.082       .  S
C2411      C2420   1.367       .  A
C2411      C2412   1.382       .  A
C2412      C2413   1.394       .  A
C2412      O2418   1.312       .  A
C2413      C2414   1.394       .  A
C2413      H2422   1.083       .  S
C2414      C2417   1.350       .  A
O2415      C2416   1.333       .  A
C2416      C2417   1.386       .  A
C2417      H2423   1.083       .  S
O2418      C2419   1.325       .  A
C2419      C2420   1.392       .  A
C2420      H2424   1.083       .  S
C2425      C2430   1.381       .  A
C2425      C2426   1.402       .  A
C2425      O2431   1.323       .  A
C2426      C2427   1.405       .  A
C2426      H2437   1.082       .  S
C2427      C2436   1.357       .  A
C2427      C2428   1.381       .  A
C2428      C2429   1.404       .  A
C2428      O2434   1.323       .  A
C2429      C2430   1.405       .  A
C2429      H2438   1.082       .  S
C2430      C2433   1.360       .  A
O2431      C2432   1.331       .  A
C2432      C2433   1.391       .  A
C2433      H2439   1.083       .  S
O2434      C2435   1.331       .  A
C2435      C2436   1.393       .  A
C2436      H2440   1.083       .  S
C2441      C2446   1.378       .  A
C2441      C2442   1.408       .  A
C2441      O2447   1.320       .  A
C2442      C2443   1.405       .  A
C2442      H2453   1.082       .  S
C2443      C2452   1.370       .  A
C2443      C2444   1.379       .  A
C2444      C2445   1.408       .  A
C2444      O2450   1.321       .  A
C2445      C2446   1.407       .  A
C2445      H2454   1.082       .  S
C2446      C2449   1.368       .  A
O2447      C2448   1.333       .  A
C2448      C2449   1.396       .  A
C2449      H2455   1.083       .  S
O2450      C2451   1.333       .  A
C2451      C2452   1.391       .  A
C2452      H2456   1.082       .  S
C2457      C2462   1.381       .  A
C2457      C2458   1.403       .  A
C2457      O2463   1.325       .  A
C2458      C2459   1.405       .  A
C2458      H2469   1.082       .  S
C2459      C2468   1.355       .  A
C2459      C2460   1.380       .  A
C2460      C2461   1.410       .  A
C2460      O2466   1.332       .  A
C2461      C2462   1.413       .  A
C2461      H2470   1.082       .  S
C2462      C2465   1.366       .  A
O2463      C2464   1.331       .  A
C2464      C2465   1.395       .  A
C2465      H2471   1.083       .  S
O2466      C2467   1.335       .  A
C2467      C2468   1.394       .  A
C2468      H2472   1.083       .  S
C2473      C2478   1.380       .  A
C2473      C2474   1.405       .  A
C2473      O2479   1.326       .  A
C2474      C2475   1.407       .  A
C2474      H2485   1.082       .  S
C2475      C2484   1.362       .  A
C2475      C2476   1.379       .  A
C2476      C2477   1.409       .  A
C2476      O2482   1.328       .  A
C2477      C2478   1.411       .  A
C2477      H2486   1.082       .  S
C2478      C2481   1.365       .  A
O2479      C2480   1.332       .  A
C2480      C2481   1.397       .  A
C2481      H2487   1.083       .  S
O2482      C2483   1.335       .  A
C2483      C2484   1.394       .  A
C2484      H2488   1.082       .  S
C2489      C2494   1.382       .  A
C2489      C2490   1.405       .  A
C2489      O2495   1.321       .  A
C2490      C2491   1.404       .  A
C2490      H2501   1.082       .  S
C2491      C2500   1.365       .  A
C2491      C2492   1.382       .  A
C2492      C2493   1.398       .  A
C2492      O2498   1.315       .  A
C2493      C2494   1.398       .  A
C2493      H2502   1.083       .  S
C2494      C2497   1.355       .  A
O2495      C2496   1.331       .  A
C2496      C2497   1.390       .  A
C2497      H2503   1.083       .  S
O2498      C2499   1.327       .  A
C2499      C2500   1.389       .  A
C2500      H2504   1.083       .  S
C2505      C2510   1.381       .  A
C2505      C2506   1.406       .  A
C2505      O2511   1.323       .  A
C2506      C2507   1.407       .  A
C2506      H2517   1.082       .  S
C2507      C2516   1.365       .  A
C2507      C2508   1.381       .  A
C2508      C2509   1.398       .  A
C2508      O2514   1.316       .  A
C2509      C2510   1.398       .  A
C2509      H2518   1.083       .  S
C2510      C2513   1.355       .  A
O2511      C2512   1.332       .  A
C2512      C2513   1.388       .  A
C2513      H2519   1.083       .  S
O2514      C2515   1.328       .  A
C2515      C2516   1.394       .  A
C2516      H2520   1.082       .  S
