geometry optimzed in LAMMPS
_audit_creation_date              2020-12-01 
_audit_creation_method            'lammps2cif' 
_symmetry_space_group_name_H-M    'P1' 
_symmetry_Int_Tables_number       1 
_symmetry_cell_setting            triclinic 
loop_ 
_symmetry_equiv_pos_as_xyz 
  x,y,z 
_cell_length_a                    28.62201841 
_cell_length_b                    28.63300866408098 
_cell_length_c                    89.0103715301429 
_cell_angle_alpha                 89.97676592303114 
_cell_angle_beta                  90.00974564253265 
_cell_angle_gamma                 89.96153007398031 
loop_ 
_atom_site_label 
_atom_site_type_symbol 
_atom_site_fract_x 
_atom_site_fract_y 
_atom_site_fract_z 
_atom_site_charge 
O1          O  0.84115469  0.09157175  0.70224853    -0.84900
O2          O  0.76563720  0.09164215  0.72079535    -0.82000
C3          C  0.78487792  0.08886745  0.73358978     0.98500
O4          O  0.80903496  0.12228104  0.73856216    -0.82000
O5          O  0.85834121  0.20619179  0.73953790    -0.84700
C6          C  0.89922263  0.19953740  0.73454693     1.03000
O7          O  0.90436465  0.18715270  0.72112440    -0.77400
O8          O  0.88634347  0.14813079  0.69398848    -0.77600
C9          C  0.88015591  0.10543224  0.69742120     1.03000
O10         O  0.79647418  0.15692659  0.68216426    -0.84900
O11         O  0.72442227  0.16631079  0.70342677    -0.82000
C12         C  0.70507605  0.17387841  0.71597951     0.98500
O13         O  0.72822221  0.17071897  0.72803750    -0.82000
O14         O  0.77872990  0.25026329  0.72602889    -0.84600
C15         C  0.80805256  0.27974599  0.72154455     1.03000
O16         O  0.84515213  0.26645270  0.71495386    -0.77500
O17         O  0.82262703  0.22617868  0.68787147    -0.77600
C18         C  0.80632135  0.19834819  0.67830913     1.03000
Cr19       Cr  0.78397310  0.13000386  0.70279102     1.93700
Cr20       Cr  0.79531640  0.18627838  0.73164751     1.93200
Cr21       Cr  0.86079013  0.20464357  0.70501379     1.39100
O22         O  0.81362184  0.17370679  0.71314520    -1.22700
O23         O  0.18208758  0.86726884  0.69600408    -0.84900
O24         O  0.22872790  0.88304184  0.72233051    -0.82000
C25         C  0.24273847  0.87665175  0.73558613     0.98500
O26         O  0.24845128  0.83585919  0.74057153    -0.82000
O27         O  0.16179625  0.79162041  0.74187647    -0.84700
C28         C  0.12607675  0.76917536  0.73772750     1.03000
O29         O  0.12495005  0.75126691  0.72475357    -0.77400
O30         O  0.12468988  0.82536263  0.70539630    -0.77600
C31         C  0.13915418  0.86264702  0.69941563     1.03000
O32         O  0.25410790  0.79775556  0.68813839    -0.84900
O33         O  0.30219325  0.81966787  0.71414651    -0.82000
C34         C  0.31525892  0.78257475  0.72071201     0.98500
O35         O  0.28610661  0.75501468  0.72647357    -0.82000
O36         O  0.20422464  0.70889126  0.73043067    -0.84600
C37         C  0.20231303  0.68465304  0.71862095     1.03000
O38         O  0.19206639  0.70396018  0.70624454    -0.77500
O39         O  0.18240329  0.77501681  0.68481608    -0.77600
C40         C  0.22340095  0.77968832  0.67981115     1.03000
Cr41       Cr  0.23925086  0.83824169  0.70578141     1.93700
Cr42       Cr  0.22372043  0.77468754  0.73333551     1.93200
Cr43       Cr  0.15991677  0.76601573  0.70594869     1.39100
O44         O  0.20772621  0.79333820  0.71502964    -1.22700
O45         O  0.34717718  0.37448695  0.79821794    -0.84900
O46         O  0.30878313  0.38641482  0.77000529    -0.82000
C47         C  0.29352142  0.37706386  0.75704885     0.98500
O48         O  0.27975924  0.33642439  0.75421004    -0.82000
O49         O  0.36390915  0.28877675  0.75453358    -0.84700
C50         C  0.39941002  0.26809393  0.75973984     1.03000
O51         O  0.39886289  0.25036467  0.77285227    -0.77400
O52         O  0.40164550  0.32315596  0.79274681    -0.77600
C53         C  0.38988102  0.36326575  0.79730436     1.03000
O54         O  0.26859336  0.31753685  0.80660869    -0.84900
O55         O  0.22660920  0.33365985  0.77938064    -0.82000
C56         C  0.21079038  0.29437496  0.77518498     0.98500
O57         O  0.23820240  0.26292285  0.77065225    -0.82000
O58         O  0.31775634  0.21024834  0.76647063    -0.84600
C59         C  0.31324200  0.18805308  0.77853251     1.03000
O60         O  0.32344272  0.20787441  0.79078070    -0.77500
O61         O  0.33338911  0.27961582  0.81157210    -0.77600
C62         C  0.29426924  0.29566250  0.81574287     1.03000
Cr63       Cr  0.29013578  0.34897689  0.78796390     1.93700
Cr64       Cr  0.30120762  0.27648609  0.76294598     1.93200
Cr65       Cr  0.36087534  0.26737756  0.79120199     1.39100
O66         O  0.31776342  0.29803219  0.78082943    -1.22700
O67         O  0.69343318  0.58914040  0.79466574    -0.84900
O68         O  0.76666254  0.60120664  0.77489552    -0.82000
C69         C  0.74777610  0.60000967  0.76201071     0.98500
O70         O  0.72115568  0.63272026  0.75788944    -0.82000
O71         O  0.66583765  0.71185096  0.75932612    -0.84700
C72         C  0.62604651  0.69865553  0.76358886     1.03000
O73         O  0.62083411  0.68369987  0.77679765    -0.77400
O74         O  0.64246703  0.63997396  0.80320715    -0.77600
C75         C  0.65372280  0.59807027  0.80023922     1.03000
O76         O  0.73441647  0.65442385  0.81494286    -0.84900
O77         O  0.80271354  0.67561406  0.79382118    -0.82000
C78         C  0.82037887  0.68953190  0.78158501     0.98500
O79         O  0.79752172  0.68494019  0.76958302    -0.82000
O80         O  0.73970973  0.75891728  0.77432971    -0.84600
C81         C  0.70847679  0.78399586  0.78011232     1.03000
O82         O  0.67220140  0.76587190  0.78583186    -0.77500
O83         O  0.69775723  0.72062349  0.81193409    -0.77600
C84         C  0.72023067  0.69282756  0.82021335     1.03000
Cr85       Cr  0.74679977  0.63343417  0.79391413     1.93700
Cr86       Cr  0.72940675  0.69554413  0.76673115     1.93200
Cr87       Cr  0.66242694  0.70057960  0.79375690     1.39100
O88         O  0.71237600  0.67634834  0.78483305    -1.22700
O89         O  0.68705751  0.11546190  0.04117399    -0.84900
O90         O  0.76265663  0.12304031  0.02219146    -0.82000
C91         C  0.74525193  0.12325118  0.00911128     0.98500
O92         O  0.72169059  0.15766054  0.00456623    -0.82000
O93         O  0.66555226  0.23611807  0.00587969    -0.84700
C94         C  0.62572903  0.22470229  0.01066156     1.03000
O95         O  0.62043961  0.20867637  0.02370432    -0.77400
O96         O  0.64064982  0.16825309  0.05083981    -0.77600
C97         C  0.64884947  0.12606917  0.04740483     1.03000
O98         O  0.72982088  0.17976211  0.06200438    -0.84900
O99         O  0.80104565  0.19473163  0.04122288    -0.82000
C100        C  0.81984908  0.20900755  0.02923030     0.98500
O101        O  0.79708653  0.21071363  0.01708848    -0.82000
O102        O  0.73830832  0.28545974  0.02047543    -0.84600
C103        C  0.70566668  0.31024203  0.02563690     1.03000
O104        O  0.67031979  0.29165454  0.03169990    -0.77500
O105        O  0.69836292  0.24823933  0.05791110    -0.77600
C106        C  0.71744735  0.21962826  0.06674405     1.03000
Cr107      Cr  0.74272606  0.15686628  0.04095334     1.93700
Cr108      Cr  0.72917647  0.22070969  0.01348043     1.93200
Cr109      Cr  0.66163303  0.22712690  0.04036253     1.39100
O110        O  0.71121773  0.20172279  0.03159362    -1.22700
O111        O  0.36030228  0.89169743  0.04624747    -0.84900
O112        O  0.28301872  0.89645716  0.02812735    -0.82000
C113        C  0.30175768  0.89892909  0.01526864     0.98500
O114        O  0.32467949  0.86469437  0.01023459    -0.82000
O115        O  0.36972746  0.77792877  0.00879357    -0.84700
C116        C  0.41061724  0.78068549  0.01411307     1.03000
O117        O  0.41677178  0.79198391  0.02759428    -0.77400
O118        O  0.40173746  0.83235624  0.05466624    -0.77600
C119        C  0.39824475  0.87543295  0.05126200     1.03000
O120        O  0.31269404  0.82987652  0.06646971    -0.84900
O121        O  0.23948158  0.82370055  0.04563209    -0.82000
C122        C  0.21928158  0.81603414  0.03322248     0.98500
O123        O  0.24159516  0.81905608  0.02097471    -0.82000
O124        O  0.28861099  0.73685460  0.02176688    -0.84600
C125        C  0.31568532  0.70576673  0.02665818     1.03000
O126        O  0.35249109  0.71650627  0.03387485    -0.77500
O127        O  0.33269842  0.75860850  0.06091506    -0.77600
C128        C  0.31850455  0.78784013  0.07039802     1.03000
Cr129      Cr  0.30073719  0.85693479  0.04593509     1.93700
Cr130      Cr  0.30799145  0.80074608  0.01688184     1.93200
Cr131      Cr  0.37222600  0.77741280  0.04370864     1.39100
O132        O  0.32722158  0.81139922  0.03548719    -1.22700
O133        O  0.86150530  0.63177507  0.94558193    -0.84900
O134        O  0.81643920  0.61427941  0.97207976    -0.82000
C135        C  0.80152262  0.62033362  0.98522835     0.98500
O136        O  0.79581830  0.66128337  0.99014508    -0.82000
O137        O  0.88154759  0.70748188  0.99078162    -0.84700
C138        C  0.91719072  0.72965996  0.98642996     1.03000
O139        O  0.91680907  0.75009061  0.97379819    -0.77400
O140        O  0.91756672  0.67667719  0.95431232    -0.77600
C141        C  0.90419637  0.63833059  0.94886844     1.03000
O142        O  0.78689032  0.69701869  0.93790548    -0.84900
O143        O  0.74079163  0.67640166  0.96391858    -0.82000
C144        C  0.72628427  0.71308714  0.97045928     0.98500
O145        O  0.75512913  0.74078261  0.97642238    -0.82000
O146        O  0.83645152  0.79045538  0.97986049    -0.84600
C147        C  0.83863279  0.81486785  0.96801573     1.03000
O148        O  0.84704472  0.79562227  0.95553478    -0.77500
O149        O  0.85636354  0.72557010  0.93397194    -0.77600
C150        C  0.81573634  0.71625534  0.92924070     1.03000
Cr151      Cr  0.80397993  0.65879690  0.95554634     1.93700
Cr152      Cr  0.81870623  0.72339116  0.98281738     1.93200
Cr153      Cr  0.88055025  0.73465943  0.95505107     1.39100
O154        O  0.83414758  0.70547612  0.96441438    -1.22700
O155        O  0.18756908  0.39527097  0.95248202    -0.84900
O156        O  0.25988963  0.38771407  0.97270795    -0.82000
C157        C  0.23817206  0.38914061  0.98508540     0.98500
O158        O  0.21245536  0.35548176  0.98900553    -0.82000
O159        O  0.16173301  0.27293694  0.98707268    -0.84700
C160        C  0.12233257  0.28404228  0.98194357     1.03000
O161        O  0.11837760  0.29945770  0.96877301    -0.77400
O162        O  0.14223997  0.34206979  0.94233954    -0.77600
C163        C  0.14986264  0.38427270  0.94597608     1.03000
O164        O  0.23417479  0.33239677  0.93245326    -0.84900
O165        O  0.30107729  0.31531399  0.95446414    -0.82000
C166        C  0.31773214  0.30255376  0.96697379     0.98500
O167        O  0.29315313  0.30538767  0.97869297    -0.82000
O168        O  0.23936661  0.22879939  0.97370207    -0.84600
C169        C  0.20973441  0.20188779  0.96790709     1.03000
O170        O  0.17379110  0.21811194  0.96136132    -0.77500
O171        O  0.20200716  0.26358516  0.93529896    -0.77600
C172        C  0.22308687  0.29293991  0.92721109     1.03000
Cr173      Cr  0.24329466  0.35427038  0.95360835     1.93700
Cr174      Cr  0.22527448  0.29219395  0.98070176     1.93200
Cr175      Cr  0.16292202  0.28283997  0.95267804     1.39100
O176        O  0.21026936  0.30959609  0.96226351    -1.22700
O177        O  0.85334945  0.37481482  0.55165207    -0.84900
O178        O  0.80420250  0.39183184  0.52588556    -0.82000
C179        C  0.79068663  0.38568746  0.51257705     0.98500
O180        O  0.78633807  0.34510746  0.50739522    -0.82000
O181        O  0.87563137  0.30708854  0.50600162    -0.84700
C182        C  0.91212364  0.28554661  0.50990391     1.03000
O183        O  0.91344757  0.26319175  0.52219086    -0.77400
O184        O  0.91200530  0.33221141  0.54303592    -0.77600
C185        C  0.89659396  0.36943463  0.54873083     1.03000
O186        O  0.78337693  0.30396551  0.55970198    -0.84900
O187        O  0.73409596  0.32283789  0.53376131    -0.82000
C188        C  0.72319656  0.28528187  0.52694778     0.98500
O189        O  0.75467292  0.26142566  0.52077175    -0.82000
O190        O  0.83836423  0.21994250  0.51559675    -0.84600
C191        C  0.83664542  0.19436562  0.52709035     1.03000
O192        O  0.84488568  0.21162212  0.53987390    -0.77500
O193        O  0.85464011  0.27840813  0.56244260    -0.77600
C194        C  0.81424849  0.28487453  0.56770593     1.03000
Cr195      Cr  0.79644706  0.34487189  0.54207001     1.93700
Cr196      Cr  0.81497945  0.28512379  0.51393292     1.93200
Cr197      Cr  0.87738643  0.27330831  0.54126601     1.39100
O198        O  0.82968839  0.30184590  0.53247968    -1.22700
O199        O  0.67662403  0.87028225  0.44340757    -0.84900
O200        O  0.71731119  0.89381908  0.47020992    -0.82000
C201        C  0.73184455  0.88936251  0.48348304     0.98500
O202        O  0.74224620  0.84933448  0.48830276    -0.82000
O203        O  0.66049012  0.79817796  0.48880299    -0.84700
C204        C  0.62725360  0.77278006  0.48440361     1.03000
O205        O  0.63030882  0.75033662  0.47217062    -0.77400
O206        O  0.62365429  0.82262919  0.45221621    -0.77600
C207        C  0.63413350  0.86131705  0.44631800     1.03000
O208        O  0.75693418  0.81162693  0.43703710    -0.84900
O209        O  0.79915637  0.83889199  0.46303256    -0.82000
C210        C  0.81511109  0.80186024  0.46892750     0.98500
O211        O  0.78815908  0.77231356  0.47477311    -0.82000
O212        O  0.71150230  0.71779758  0.47883298    -0.84600
C213        C  0.71600311  0.69340545  0.46710840     1.03000
O214        O  0.70540165  0.71064159  0.45445483    -0.77500
O215        O  0.68930770  0.77961814  0.43250513    -0.77600
C216        C  0.72899685  0.79291390  0.42798586     1.03000
Cr217      Cr  0.73530781  0.84989070  0.45406405     1.93700
Cr218      Cr  0.72426919  0.78577153  0.48133121     1.93200
Cr219      Cr  0.66555865  0.76802635  0.45345607     1.39100
O220        O  0.70839404  0.80157111  0.46290900    -1.22700
O221        O  0.35043850  0.09872993  0.45627078    -0.84900
O222        O  0.27507159  0.09845206  0.47521619    -0.82000
C223        C  0.29617661  0.09732854  0.48765753     0.98500
O224        O  0.31983872  0.13199017  0.49183086    -0.82000
O225        O  0.36654057  0.21631398  0.49125537    -0.84700
C226        C  0.40653636  0.21286258  0.48539147     1.03000
O227        O  0.41119687  0.20216213  0.47175410    -0.77400
O228        O  0.39064196  0.15579103  0.44579978    -0.77600
C229        C  0.38703791  0.11345481  0.44997647     1.03000
O230        O  0.30095037  0.15583901  0.43549886    -0.84900
O231        O  0.23142900  0.16795585  0.45683883    -0.82000
C232        C  0.21263574  0.17853141  0.46920585     0.98500
O233        O  0.23614857  0.17843494  0.48128040    -0.82000
O234        O  0.28559805  0.25924895  0.47898478    -0.84600
C235        C  0.31226052  0.28854097  0.47286071     1.03000
O236        O  0.34654510  0.27570877  0.46482198    -0.77500
O237        O  0.32170001  0.22829388  0.43889400    -0.77600
C238        C  0.30508828  0.19687385  0.43057085     1.03000
Cr239      Cr  0.29161720  0.13397038  0.45660100     1.93700
Cr240      Cr  0.30349982  0.19515620  0.48435182     1.93200
Cr241      Cr  0.36381974  0.21306247  0.45600097     1.39100
O242        O  0.31991198  0.18123895  0.46567641    -1.22700
O243        O  0.18811838  0.61511575  0.55402627    -0.84900
O244        O  0.22898618  0.60048107  0.52676809    -0.82000
C245        C  0.23882065  0.60685074  0.51314906     0.98500
O246        O  0.24288209  0.64769580  0.50794206    -0.82000
O247        O  0.15415017  0.68744060  0.50861928    -0.84700
C248        C  0.11853354  0.70859908  0.51341659     1.03000
O249        O  0.11904746  0.72772298  0.52623126    -0.77400
O250        O  0.12678257  0.65334399  0.54551236    -0.77600
C251        C  0.14437409  0.61743541  0.55151406     1.03000
O252        O  0.25803835  0.68769098  0.56012345    -0.84900
O253        O  0.30132951  0.66856034  0.53298614    -0.82000
C254        C  0.31031739  0.70618594  0.52597415     0.98500
O255        O  0.27805618  0.73171325  0.52108426    -0.82000
O256        O  0.19374215  0.77356867  0.51903787    -0.84600
C257        C  0.19530321  0.79665211  0.53113540     1.03000
O258        O  0.18859497  0.77667011  0.54358760    -0.77500
O259        O  0.18562699  0.70607950  0.56489417    -0.77600
C260        C  0.22772593  0.70357096  0.56904023     1.03000
Cr261      Cr  0.24148522  0.64637575  0.54286861     1.93700
Cr262      Cr  0.21629786  0.70824297  0.51563099     1.93200
Cr263      Cr  0.15858183  0.71415334  0.54432782     1.39100
O264        O  0.20557751  0.68917180  0.53426918    -1.22700
O265        O  0.85012584  0.90012765  0.29054737    -0.84900
O266        O  0.77639563  0.90053981  0.27128992    -0.82000
C267        C  0.79832765  0.89933828  0.25898834     0.98500
O268        O  0.81952305  0.86267211  0.25509809    -0.82000
O269        O  0.86329265  0.77634301  0.25718018    -0.84700
C270        C  0.90357532  0.78300293  0.26257291     1.03000
O271        O  0.90813651  0.79715515  0.27586680    -0.77400
O272        O  0.88869921  0.84364104  0.30179078    -0.77600
C273        C  0.88601970  0.88561428  0.29724404     1.03000
O274        O  0.79894414  0.84564017  0.31162657    -0.84900
O275        O  0.72868865  0.83534827  0.29028962    -0.82000
C276        C  0.70973999  0.82514528  0.27790884     0.98500
O277        O  0.73419196  0.82101751  0.26609494    -0.82000
O278        O  0.78086314  0.73863739  0.27014138    -0.84600
C279        C  0.80749666  0.70929057  0.27633097     1.03000
O280        O  0.84350838  0.72309207  0.28340247    -0.77500
O281        O  0.81883628  0.77263511  0.30880974    -0.77600
C282        C  0.80257937  0.80487789  0.31688428     1.03000
Cr283      Cr  0.79049696  0.86654136  0.29037648     1.93700
Cr284      Cr  0.80085979  0.80113395  0.26353523     1.93200
Cr285      Cr  0.86128824  0.78637055  0.29176611     1.39100
O286        O  0.81752826  0.81756386  0.28191487    -1.22700
O287        O  0.34934222  0.61757353  0.20901730    -0.84900
O288        O  0.26992203  0.61918552  0.22692042    -0.82000
C289        C  0.28668980  0.62145312  0.24011907     0.98500
O290        O  0.30960397  0.65671599  0.24412929    -0.82000
O291        O  0.35621664  0.74123366  0.24310495    -0.84700
C292        C  0.39767756  0.73350676  0.23874319     1.03000
O293        O  0.40528615  0.71856306  0.22567729    -0.77400
O294        O  0.39030730  0.67411258  0.19886445    -0.77600
C295        C  0.38620328  0.63139703  0.20259897     1.03000
O296        O  0.30428252  0.67518497  0.18681544    -0.84900
O297        O  0.22934795  0.68583349  0.20625077    -0.82000
C298        C  0.20762746  0.69873432  0.21784971     0.98500
O299        O  0.22800153  0.69988168  0.23051203    -0.82000
O300        O  0.27700805  0.77862343  0.22743368    -0.84600
C301        C  0.30655026  0.80791312  0.22316810     1.03000
O302        O  0.34484622  0.79474513  0.21736680    -0.77500
O303        O  0.32375483  0.74751793  0.19124247    -0.77600
C304        C  0.31080496  0.71653230  0.18214734     1.03000
Cr305      Cr  0.29008572  0.65276135  0.20791705     1.93700
Cr306      Cr  0.29455027  0.71760061  0.23502817     1.93200
Cr307      Cr  0.36247906  0.73144990  0.20883284     1.39100
O308        O  0.31602360  0.70058129  0.21730880    -1.22700
O309        O  0.17524579  0.13030439  0.30340459    -0.84900
O310        O  0.21436076  0.11533609  0.27568789    -0.82000
C311        C  0.23062707  0.12282094  0.26278214     0.98500
O312        O  0.24262955  0.16343776  0.25906026    -0.82000
O313        O  0.15601752  0.20863318  0.25881572    -0.84700
C314        C  0.12091384  0.23108442  0.26356491     1.03000
O315        O  0.12148551  0.25060000  0.27638907    -0.77400
O316        O  0.11940718  0.17704998  0.29585988    -0.77600
C317        C  0.13241128  0.13775854  0.30082120     1.03000
O318        O  0.25234632  0.18993604  0.31082505    -0.84900
O319        O  0.29448618  0.17191466  0.28427233    -0.82000
C320        C  0.30938106  0.21144213  0.27998928     0.98500
O321        O  0.28136029  0.24099427  0.27449932    -0.82000
O322        O  0.19881227  0.28931761  0.27013657    -0.84600
C323        C  0.20476564  0.31279124  0.28187009     1.03000
O324        O  0.19535463  0.29421496  0.29441909    -0.77500
O325        O  0.18483938  0.22274430  0.31571262    -0.77600
C326        C  0.22476783  0.20884760  0.31995237     1.03000
Cr327      Cr  0.23176065  0.15551117  0.29290947     1.93700
Cr328      Cr  0.21864632  0.22395937  0.26696432     1.93200
Cr329      Cr  0.15855258  0.23427376  0.29497936     1.39100
O330        O  0.20283111  0.20425704  0.28505531    -1.22700
O331        O  0.67236168  0.37797413  0.19344718    -0.84900
O332        O  0.71850516  0.39812668  0.21920616    -0.82000
C333        C  0.73205564  0.39401203  0.23257763     0.98500
O334        O  0.73641936  0.35393584  0.23838452    -0.82000
O335        O  0.65079089  0.30800256  0.23959066    -0.84700
C336        C  0.61564968  0.28471071  0.23555003     1.03000
O337        O  0.61625426  0.26311751  0.22319467    -0.77400
O338        O  0.61578366  0.33878691  0.20440947    -0.77600
C339        C  0.63079660  0.37585941  0.19845992     1.03000
O340        O  0.74492833  0.30868224  0.18641945    -0.84900
O341        O  0.79277677  0.33399556  0.21231844    -0.82000
C342        C  0.80561947  0.29920000  0.22014656     0.98500
O343        O  0.77630551  0.27177748  0.22585277    -0.82000
O344        O  0.69534111  0.22370780  0.22897013    -0.84600
C345        C  0.69525944  0.20009263  0.21692362     1.03000
O346        O  0.68432589  0.21877752  0.20454553    -0.77500
O347        O  0.67224085  0.28835722  0.18312209    -0.77600
C348        C  0.71340943  0.29185517  0.17815887     1.03000
Cr349      Cr  0.72989068  0.35105473  0.20348054     1.93700
Cr350      Cr  0.71329294  0.29084219  0.23179042     1.93200
Cr351      Cr  0.65068598  0.27932788  0.20436698     1.39100
O352        O  0.69847102  0.30718531  0.21321610    -1.22700
C353        C  0.91371216  0.28276342  0.24404163    -0.05100
C354        C  0.94750450  0.27059257  0.23319870     0.09100
C355        C  0.93555894  0.27099252  0.21779359    -0.02400
C356        C  0.88946160  0.28216632  0.21330155    -0.00700
C357        C  0.85527206  0.29237457  0.22423805    -0.04300
C358        C  0.86779374  0.29332212  0.23961147     0.02700
C359        C  0.99531891  0.25696330  0.23839169     0.09500
C360        C  0.97046307  0.25906149  0.20664931     0.35400
C361        C  0.83348077  0.30544887  0.25098910     0.38900
C362        C  0.00194514  0.21349115  0.24559173    -0.04700
C363        C  0.04356841  0.20445746  0.25355228     0.02500
C364        C  0.07962776  0.23798049  0.25380534    -0.04300
C365        C  0.07399004  0.28049757  0.24593135    -0.00500
C366        C  0.03176753  0.29009928  0.23833953    -0.03100
C367        C  0.96465882  0.17914831  0.24552912     0.36200
C368        C  0.11071379  0.31540089  0.24625781     0.39800
C369        C  0.04740727  0.16242468  0.26252140     0.38900
C370        C  0.02467584  0.33511822  0.23121395     0.35800
C371        C  0.92624956  0.28403012  0.25985342     0.36500
C372        C  0.87676261  0.28156046  0.19753773     0.39800
N373        N  0.04922256  0.12914170  0.26985740    -0.38300
N374        N  0.93484003  0.15186711  0.24552378    -0.39900
N375        N  0.13975010  0.34350649  0.24650074    -0.37600
N376        N  0.01879182  0.37103162  0.22554935    -0.40000
N377        N  0.99840383  0.24962369  0.19775774    -0.44600
N378        N  0.86648566  0.28115472  0.18496146    -0.37400
N379        N  0.80649793  0.31496043  0.26017605    -0.38500
N380        N  0.93634561  0.28485333  0.27244174    -0.40100
C381        C  0.43989175  0.19933129  0.27336396    -0.05100
C382        C  0.45213529  0.24676415  0.27181490     0.09100
C383        C  0.42086245  0.28167271  0.27661532    -0.02400
C384        C  0.37540948  0.26939552  0.28116708    -0.00700
C385        C  0.36038716  0.22236833  0.28022383    -0.04300
C386        C  0.39434026  0.18700526  0.27790611     0.02700
C387        C  0.49455191  0.25993430  0.26306727     0.09500
C388        C  0.43469051  0.33038429  0.27603387     0.35400
C389        C  0.38268560  0.13804816  0.27974888     0.38900
C390        C  0.48941161  0.27172403  0.24777882    -0.04700
C391        C  0.52886177  0.28243183  0.23903479     0.02500
C392        C  0.57411519  0.27991351  0.24539775    -0.04300
C393        C  0.57920933  0.26816911  0.26076799    -0.00500
C394        C  0.53937096  0.25878340  0.26962270    -0.03100
C395        C  0.44336868  0.27103704  0.24090205     0.36200
C396        C  0.62539145  0.26247415  0.26723644     0.39800
C397        C  0.52253011  0.29582251  0.22343353     0.38900
C398        C  0.54442410  0.24652131  0.28534468     0.35800
C399        C  0.47321288  0.16331584  0.26927040     0.36500
C400        C  0.34496873  0.30490605  0.28741585     0.39800
N401        N  0.51695975  0.30633778  0.21100437    -0.38300
N402        N  0.40661833  0.27008869  0.23548910    -0.39900
N403        N  0.66224347  0.25752333  0.27234889    -0.37600
N404        N  0.54843247  0.23658866  0.29788435    -0.40000
N405        N  0.44565008  0.36924555  0.27547590    -0.39800
N406        N  0.32155038  0.33335267  0.29275712    -0.37400
N407        N  0.37366079  0.09894644  0.28131520    -0.38500
N408        N  0.49983450  0.13466570  0.26597204    -0.40100
C409        C  0.55442590  0.47543675  0.18372994    -0.05100
C410        C  0.53425000  0.49209841  0.19718839     0.09100
C411        C  0.54789542  0.47234843  0.21102600    -0.02400
C412        C  0.58036155  0.43525914  0.21139279    -0.00700
C413        C  0.59943636  0.41735788  0.19788192    -0.04300
C414        C  0.58725257  0.43843466  0.18408023     0.02700
C415        C  0.49681499  0.52888083  0.19688834     0.09500
C416        C  0.52785606  0.48989215  0.22490537     0.35400
C417        C  0.60740279  0.42109085  0.17022314     0.38900
C418        C  0.44964547  0.51562973  0.19541318    -0.04700
C419        C  0.41373553  0.54928978  0.19656427     0.02500
C420        C  0.42456955  0.59691645  0.19939067    -0.04300
C421        C  0.47232189  0.61040844  0.19996058    -0.00500
C422        C  0.50809238  0.57639748  0.19890528    -0.03100
C423        C  0.43809090  0.46685541  0.19301280     0.36200
C424        C  0.48518853  0.65894362  0.20213265     0.39800
C425        C  0.36564627  0.53457839  0.19448761     0.38900
C426        C  0.55669328  0.59002263  0.20032491     0.35800
C427        C  0.54047905  0.49576837  0.16951121     0.36500
C428        C  0.59502741  0.41650888  0.22579329     0.39800
N429        N  0.32733956  0.52274852  0.19281034    -0.38300
N430        N  0.42904180  0.42792067  0.19110478    -0.39900
N431        N  0.49568822  0.69762401  0.20381855    -0.37600
N432        N  0.59547361  0.60082221  0.20150950    -0.40000
N433        N  0.51180533  0.50396031  0.23594788    -0.39800
N434        N  0.60658464  0.40232692  0.23738849    -0.37400
N435        N  0.62369777  0.40718012  0.15919821    -0.38500
N436        N  0.52911972  0.51199392  0.15817528    -0.40100
C437        C  0.30316185  0.52139250  0.26785008    -0.05100
C438        C  0.25698448  0.50429111  0.26882370     0.09100
C439        C  0.22013654  0.53017024  0.26238639    -0.02400
C440        C  0.22990043  0.57071526  0.25402071    -0.00700
C441        C  0.27659994  0.58388804  0.25115889    -0.04300
C442        C  0.31308298  0.56069505  0.25882786     0.02700
C443        C  0.24836888  0.45512265  0.27373776     0.09500
C444        C  0.17233276  0.51374083  0.26366141     0.35400
C445        C  0.36097862  0.57585758  0.25701037     0.38900
C446        C  0.22219467  0.44468403  0.28676401    -0.04700
C447        C  0.20781182  0.39826070  0.28966472     0.02500
C448        C  0.22222674  0.36160908  0.28004850    -0.04300
C449        C  0.25147702  0.37230438  0.26755337    -0.00500
C450        C  0.26303376  0.41873247  0.26421507    -0.03100
C451        C  0.20899610  0.48199417  0.29691908     0.36200
C452        C  0.26989186  0.33600932  0.25777195     0.39800
C453        C  0.17508201  0.38925076  0.30173767     0.38900
C454        C  0.28851274  0.42927437  0.25047599     0.35800
C455        C  0.34072036  0.49651321  0.27533985     0.36500
C456        C  0.19170091  0.60019589  0.24915441     0.39800
N457        N  0.14831803  0.38245478  0.31123463    -0.38300
N458        N  0.19851134  0.51176434  0.30503849    -0.39900
N459        N  0.28477435  0.30788328  0.24974950    -0.37600
N460        N  0.30870812  0.43771635  0.23954380    -0.40000
N461        N  0.13424020  0.50058795  0.26468801    -0.39800
N462        N  0.16058159  0.62391402  0.24592935    -0.37400
N463        N  0.39939973  0.58765436  0.25574357    -0.38500
N464        N  0.37060465  0.47643953  0.28126846    -0.40100
C465        C  0.29411807  0.03398518  0.23880312    -0.05100
C466        C  0.25934732  0.99949463  0.23723386     0.09100
C467        C  0.21314187  0.00902737  0.24183544    -0.02400
C468        C  0.20321751  0.05016555  0.24983665    -0.00700
C469        C  0.23873430  0.08336918  0.25237405    -0.04300
C470        C  0.28327292  0.07675828  0.24578293     0.02700
C471        C  0.27260237  0.95072789  0.23324812     0.09500
C472        C  0.17654168  0.97495560  0.23917128     0.35400
C473        C  0.31860387  0.11295515  0.24659032     0.38900
C474        C  0.27170154  0.91645956  0.24461473    -0.04700
C475        C  0.28146077  0.86978171  0.24110849     0.02500
C476        C  0.29664899  0.85754644  0.22646603    -0.04300
C477        C  0.29896656  0.89206771  0.21516767    -0.00500
C478        C  0.28564078  0.93844703  0.21846749    -0.03100
C479        C  0.26104806  0.92939506  0.26004032     0.36200
C480        C  0.31237253  0.87938486  0.20000215     0.39800
C481        C  0.27695436  0.83461626  0.25281888     0.38900
C482        C  0.28406363  0.97324093  0.20664920     0.35800
C483        C  0.34180548  0.02415518  0.23424536     0.36500
C484        C  0.15654373  0.05780651  0.25560925     0.39800
N485        N  0.27334766  0.80671984  0.26216436    -0.38300
N486        N  0.25259726  0.93984734  0.27229990    -0.39900
N487        N  0.32294934  0.86928403  0.18788576    -0.37600
N488        N  0.28257313  0.00108317  0.19722986    -0.40000
N489        N  0.14741584  0.94769165  0.23709662    -0.39800
N490        N  0.11916839  0.06315164  0.26020535    -0.37400
N491        N  0.34672690  0.14197058  0.24684989    -0.38500
N492        N  0.37986264  0.01614937  0.23069228    -0.40100
C493        C  0.01586251  0.07363805  0.30614073    -0.05100
C494        C  0.02964751  0.02672244  0.30439398     0.09100
C495        C  0.07735382  0.01570955  0.30301233    -0.02400
C496        C  0.11105722  0.05157272  0.30216422    -0.00700
C497        C  0.09741412  0.09933020  0.30330172    -0.04300
C498        C  0.04951232  0.10973248  0.30590888     0.02700
C499        C  0.99374259  0.98902179  0.30280030     0.09500
C500        C  0.09155979  0.96708339  0.30221239     0.35400
C501        C  0.03432903  0.15745409  0.30840418     0.38900
C502        C  0.98035400  0.97414206  0.28831453    -0.04700
C503        C  0.94630167  0.93907954  0.28660244     0.02500
C504        C  0.92529275  0.91859972  0.29937603    -0.04300
C505        C  0.93945057  0.93259610  0.31388208    -0.00500
C506        C  0.97351781  0.96793748  0.31558504    -0.03100
C507        C  0.00133010  0.99536801  0.27513506     0.36200
C508        C  0.91778247  0.91183128  0.32700526     0.39800
C509        C  0.93309150  0.92375791  0.27163536     0.38900
C510        C  0.98739126  0.98319184  0.33045126     0.35800
C511        C  0.96668746  0.08474227  0.30786892     0.36500
C512        C  0.15930372  0.03849626  0.29938214     0.39800
N513        N  0.92255115  0.91155794  0.25971233    -0.38300
N514        N  0.01802022  0.01219950  0.26460509    -0.39900
N515        N  0.90040185  0.89517839  0.33745218    -0.37600
N516        N  0.99846483  0.99561043  0.34229790    -0.40000
N517        N  0.10275515  0.92827181  0.30168270    -0.39800
N518        N  0.19762279  0.02758851  0.29714416    -0.37400
N519        N  0.02206294  0.19547466  0.31040748    -0.38500
N520        N  0.92743838  0.09346709  0.30924445    -0.40100
C521        C  0.98503894  0.76656513  0.22891550    -0.05100
C522        C  0.02419904  0.74583641  0.23579855     0.09100
C523        C  0.02460672  0.73870354  0.25146640    -0.02400
C524        C  0.98587227  0.75186264  0.26026432    -0.00700
C525        C  0.94579638  0.77183936  0.25339380    -0.04300
C526        C  0.94592083  0.77948876  0.23763804     0.02700
C527        C  0.06713364  0.73502507  0.22693107     0.09500
C528        C  0.06550427  0.71833331  0.25858399     0.35400
C529        C  0.90675388  0.80246025  0.23038035     0.38900
C530        C  0.10004977  0.77062017  0.22427911    -0.04700
C531        C  0.14496747  0.75908085  0.21906825     0.02500
C532        C  0.15767620  0.71187679  0.21714939    -0.04300
C533        C  0.12276023  0.67720332  0.21752988    -0.00500
C534        C  0.07742614  0.68870268  0.22259880    -0.03100
C535        C  0.08841829  0.81881529  0.22766381     0.36200
C536        C  0.13399369  0.62970073  0.21320303     0.39800
C537        C  0.17736080  0.79593543  0.21519500     0.38900
C538        C  0.04206188  0.65280060  0.22404725     0.35800
C539        C  0.98556628  0.77538821  0.21287046     0.36500
C540        C  0.98761181  0.74415610  0.27637793     0.39800
N541        N  0.20163144  0.82630415  0.21167400    -0.38300
N542        N  0.07895715  0.85718893  0.23037943    -0.39900
N543        N  0.14299419  0.59181024  0.20972280    -0.37600
N544        N  0.01369932  0.62423111  0.22519168    -0.40000
N545        N  0.09809838  0.70211291  0.26424423    -0.39800
N546        N  0.98931631  0.73825718  0.28923445    -0.37400
N547        N  0.87564980  0.82084370  0.22453985    -0.38500
N548        N  0.98623496  0.78263839  0.20007980    -0.40100
C549        C  0.59024442  0.82358174  0.26015742    -0.05100
C550        C  0.56696011  0.79015897  0.26911729     0.09100
C551        C  0.58798509  0.77431812  0.28254311    -0.02400
C552        C  0.63371285  0.78884517  0.28632251    -0.00700
C553        C  0.65844109  0.81903853  0.27658376    -0.04300
C554        C  0.63522315  0.83883533  0.26411105     0.02700
C555        C  0.52062277  0.77174263  0.26404658     0.09500
C556        C  0.56312354  0.74188726  0.29215612     0.35400
C557        C  0.65738926  0.87564456  0.25544295     0.38900
C558        C  0.51734842  0.72700080  0.25747086    -0.04700
C559        C  0.47624996  0.71350177  0.24985095     0.02500
C560        C  0.43819343  0.74488406  0.24860191    -0.04300
C561        C  0.44126473  0.78911394  0.25566198    -0.00500
C562        C  0.48162735  0.80173149  0.26375737    -0.03100
C563        C  0.55696992  0.69543718  0.25799772     0.36200
C564        C  0.40611560  0.82452921  0.25312736     0.39800
C565        C  0.47412577  0.66785818  0.24282303     0.38900
C566        C  0.48433745  0.84709408  0.27102186     0.35800
C567        C  0.56857025  0.84127126  0.24653907     0.36500
C568        C  0.65616809  0.77032042  0.29966880     0.39800
N569        N  0.47317373  0.63148856  0.23716911    -0.38300
N570        N  0.58825817  0.66986495  0.25842523    -0.39900
N571        N  0.38025318  0.85491584  0.25117403    -0.37600
N572        N  0.48665245  0.88334458  0.27671947    -0.40000
N573        N  0.54328668  0.71580988  0.29976779    -0.39800
N574        N  0.67409641  0.75519777  0.31026509    -0.37400
N575        N  0.67465776  0.90541107  0.24863015    -0.38500
N576        N  0.55124535  0.85552902  0.23571873    -0.40100
C577        C  0.79161370  0.02567085  0.24658528    -0.05100
C578        C  0.76905596  0.02093222  0.23259595     0.09100
C579        C  0.76404753  0.97634901  0.22609982    -0.02400
C580        C  0.77784665  0.93617438  0.23418488    -0.00700
C581        C  0.79566043  0.94064142  0.24894436    -0.04300
C582        C  0.80437568  0.98570652  0.25483532     0.02700
C583        C  0.74565790  0.06257625  0.22584361     0.09500
C584        C  0.74257493  0.97187987  0.21142604     0.35400
C585        C  0.82535944  0.99139258  0.26956018     0.38900
C586        C  0.76916214  0.09086465  0.21530757    -0.04700
C587        C  0.75019020  0.13453697  0.21116237     0.02500
C588        C  0.70825259  0.15025197  0.21783237    -0.04300
C589        C  0.68314268  0.12043400  0.22752795    -0.00500
C590        C  0.70162778  0.07651337  0.23142354    -0.03100
C591        C  0.81403400  0.07613652  0.20943315     0.36200
C592        C  0.63894461  0.13567398  0.23386862     0.39800
C593        C  0.77539010  0.16467119  0.20087207     0.38900
C594        C  0.67652113  0.04652512  0.24179536     0.35800
C595        C  0.79983975  0.07189448  0.25275257     0.36500
C596        C  0.77018704  0.89027592  0.22776685     0.39800
N597        N  0.79529857  0.18880503  0.19264000    -0.38300
N598        N  0.84990846  0.06435837  0.20478500    -0.39900
N599        N  0.60375287  0.14792406  0.23892219    -0.37600
N600        N  0.65661536  0.02256781  0.25008150    -0.40000
N601        N  0.72545293  0.96847126  0.19969992    -0.39800
N602        N  0.76396584  0.85365094  0.22265387    -0.37400
N603        N  0.84193677  0.99717727  0.28127169    -0.38500
N604        N  0.80645892  0.10877911  0.25761800    -0.40100
C605        C  0.82507833  0.57876733  0.26832232    -0.05100
C606        C  0.77907408  0.56486951  0.26484506     0.09100
C607        C  0.74193761  0.59621206  0.26723586    -0.02400
C608        C  0.75095381  0.64243768  0.27187106    -0.00700
C609        C  0.79750294  0.65808437  0.27426342    -0.04300
C610        C  0.83438179  0.62498459  0.27309351     0.02700
C611        C  0.76996113  0.51936925  0.25702516     0.09500
C612        C  0.69429448  0.58127119  0.26432336     0.35400
C613        C  0.88238278  0.63849428  0.27595595     0.38900
C614        C  0.74935055  0.48148970  0.26470074    -0.04700
C615        C  0.73632373  0.44067590  0.25679157     0.02500
C616        C  0.74542368  0.43679655  0.24118755    -0.04300
C617        C  0.76847754  0.47408289  0.23373995    -0.00500
C618        C  0.77943674  0.51547607  0.24153128    -0.03100
C619        C  0.74125246  0.48483383  0.28074249     0.36200
C620        C  0.78269790  0.46958727  0.21814360     0.39800
C621        C  0.71205993  0.40357299  0.26467013     0.38900
C622        C  0.79977116  0.55467297  0.23350588     0.35800
C623        C  0.86307763  0.54573251  0.26641854     0.36500
C624        C  0.71172659  0.67378755  0.27379890     0.39800
N625        N  0.69257372  0.37404606  0.27095840    -0.38300
N626        N  0.73494781  0.48754526  0.29355416    -0.39900
N627        N  0.79429479  0.46594949  0.20574153    -0.37600
N628        N  0.81583965  0.58601303  0.22712712    -0.40000
N629        N  0.65636122  0.56917511  0.26207223    -0.39800
N630        N  0.67983680  0.69823239  0.27506383    -0.37400
N631        N  0.92079713  0.64882315  0.27826864    -0.38500
N632        N  0.89332781  0.51934683  0.26484316    -0.40100
C633        C  0.31545701  0.22986167  0.38918544    -0.05100
C634        C  0.27207867  0.21429413  0.38353806     0.09100
C635        C  0.23837051  0.19622780  0.39353832    -0.02400
C636        C  0.24846549  0.19223902  0.40899918    -0.00700
C637        C  0.29238321  0.20662187  0.41465235    -0.04300
C638        C  0.32559101  0.22610630  0.40468851     0.02700
C639        C  0.26259818  0.21397875  0.36695620     0.09500
C640        C  0.19353289  0.18068346  0.38779624     0.35400
C641        C  0.37136036  0.23946508  0.41020133     0.38900
C642        C  0.26483997  0.17151840  0.35893713    -0.04700
C643        C  0.25214175  0.16996921  0.34363834     0.02500
C644        C  0.23846867  0.21126232  0.33605811    -0.04300
C645        C  0.23831665  0.25408243  0.34391888    -0.00500
C646        C  0.24966974  0.25534014  0.35937299    -0.03100
C647        C  0.28016879  0.12928191  0.36650041     0.36200
C648        C  0.22865448  0.29714214  0.33597077     0.39800
C649        C  0.25170184  0.12542504  0.33584676     0.38900
C650        C  0.24784080  0.29912060  0.36752212     0.35800
C651        C  0.35031123  0.24809694  0.37892565     0.36500
C652        C  0.21343953  0.17306316  0.41903479     0.39800
N653        N  0.25122690  0.08990306  0.32964366    -0.38300
N654        N  0.29251643  0.09568877  0.37254966    -0.39900
N655        N  0.22175736  0.33176482  0.32965708    -0.37600
N656        N  0.24647348  0.33405302  0.37404374    -0.40000
N657        N  0.15793070  0.16810507  0.38315293    -0.39800
N658        N  0.18510618  0.15760652  0.42686153    -0.37400
N659        N  0.40793104  0.24986933  0.41461959    -0.38500
N660        N  0.37806534  0.26267872  0.37072021    -0.40100
C661        C  0.29724599  0.39975004  0.49543582    -0.05100
C662        C  0.28202018  0.43153565  0.48436174     0.09100
C663        C  0.27994659  0.41730246  0.46918423    -0.02400
C664        C  0.29148948  0.37086373  0.46518667    -0.00700
C665        C  0.30478911  0.33858739  0.47639485    -0.04300
C666        C  0.30852583  0.35350616  0.49149052     0.02700
C667        C  0.26831366  0.47989298  0.48901970     0.09500
C668        C  0.26556966  0.45037570  0.45776064     0.35400
C669        C  0.32471661  0.32141743  0.50301123     0.38900
C670        C  0.30244737  0.51527981  0.48986321    -0.04700
C671        C  0.29225802  0.55788098  0.49715128     0.02500
C672        C  0.24751684  0.56556690  0.50343304    -0.04300
C673        C  0.21236138  0.53142984  0.50157551    -0.00500
C674        C  0.22287879  0.48851370  0.49453807    -0.03100
C675        C  0.34882158  0.50673977  0.48388460     0.36200
C676        C  0.16539311  0.54044436  0.50698685     0.39800
C677        C  0.32900758  0.59214676  0.49910982     0.38900
C678        C  0.18757239  0.45233772  0.49353076     0.35800
C679        C  0.30118282  0.41480517  0.51095845     0.36500
C680        C  0.28852244  0.35594518  0.44965724     0.39800
N681        N  0.35899288  0.61877853  0.50066599    -0.38300
N682        N  0.38575989  0.49979244  0.47909136    -0.39900
N683        N  0.12790514  0.54779639  0.51125390    -0.37600
N684        N  0.15951816  0.42334623  0.49276563    -0.40000
N685        N  0.25417376  0.47686181  0.44864482    -0.39800
N686        N  0.28630063  0.34398374  0.43725834    -0.37400
N687        N  0.33772359  0.29612242  0.51225616    -0.38500
N688        N  0.30434794  0.42702400  0.52330901    -0.40100
C689        C  0.28003889  0.97165129  0.49993634    -0.05100
C690        C  0.25999206  0.97763470  0.51429154     0.09100
C691        C  0.25791202  0.02254755  0.52073732    -0.02400
C692        C  0.27278160  0.06183093  0.51240334    -0.00700
C693        C  0.28964752  0.05616543  0.49756569    -0.04300
C694        C  0.29470840  0.01072344  0.49158146     0.02700
C695        C  0.23792370  0.93653768  0.52183062     0.09500
C696        C  0.23894319  0.02837961  0.53571594     0.35400
C697        C  0.31462647  0.00397762  0.47674330     0.38900
C698        C  0.26327897  0.90976873  0.53235252    -0.04700
C699        C  0.24701408  0.86511584  0.53659978     0.02500
C700        C  0.20553936  0.84719009  0.53020208    -0.04300
C701        C  0.17821462  0.87575544  0.52070634    -0.00500
C702        C  0.19413730  0.92053725  0.51666844    -0.03100
C703        C  0.30738070  0.92711023  0.53808635     0.36200
C704        C  0.13464907  0.85817882  0.51456074     0.39800
C705        C  0.27499096  0.83608315  0.54648764     0.38900
C706        C  0.16675870  0.94925982  0.50651404     0.35800
C707        C  0.28418456  0.92511438  0.49358981     0.36500
C708        C  0.26779619  0.10822408  0.51874300     0.39800
N709        N  0.29729215  0.81276508  0.55433372    -0.38300
N710        N  0.34251193  0.94112573  0.54266823    -0.39900
N711        N  0.10004823  0.84399154  0.50962706    -0.37600
N712        N  0.14498098  0.97220675  0.49841027    -0.40000
N713        N  0.22397648  0.03300560  0.54770050    -0.39800
N714        N  0.26382859  0.14529926  0.52375938    -0.37400
N715        N  0.33046245  0.99807327  0.46493207    -0.38500
N716        N  0.28729643  0.88793650  0.48859028    -0.40100
C717        C  0.73814151  0.74974563  0.38740636    -0.05100
C718        C  0.76164864  0.78736492  0.38054372     0.09100
C719        C  0.77583454  0.82586812  0.38927216    -0.02400
C720        C  0.76555776  0.82743791  0.40474100    -0.00700
C721        C  0.74163222  0.78984744  0.41174366    -0.04300
C722        C  0.72821961  0.75084859  0.40294951     0.02700
C723        C  0.76977077  0.78786387  0.36394504     0.09500
C724        C  0.80035905  0.86443293  0.38219741     0.35400
C725        C  0.70459800  0.71151206  0.40982965     0.38900
C726        C  0.74044819  0.81479043  0.35461700    -0.04700
C727        C  0.75011727  0.81887667  0.33915306     0.02500
C728        C  0.78964700  0.79629051  0.33286778    -0.04300
C729        C  0.81844932  0.76844495  0.34224072    -0.00500
C730        C  0.80826611  0.76405865  0.35769905    -0.03100
C731        C  0.70084688  0.83931221  0.36107396     0.36200
C732        C  0.86033748  0.74671795  0.33628269     0.39800
C733        C  0.71915226  0.84659048  0.32979000     0.38900
C734        C  0.83827119  0.73627545  0.36733436     0.35800
C735        C  0.72364862  0.71018548  0.37836785     0.36500
C736        C  0.77761233  0.86913560  0.41317304     0.39800
N737        N  0.69440650  0.86888738  0.32241051    -0.38300
N738        N  0.66948806  0.85906985  0.36627162    -0.39900
N739        N  0.89389701  0.72958336  0.33155995    -0.37600
N740        N  0.86207525  0.71404613  0.37504413    -0.40000
N741        N  0.81979123  0.89516320  0.37651997    -0.39800
N742        N  0.78720290  0.90244505  0.41985701    -0.37400
N743        N  0.68563419  0.68003491  0.41523231    -0.38500
N744        N  0.71221418  0.67866382  0.37111527    -0.40100
C745        C  0.48143943  0.02488016  0.45893771    -0.05100
C746        C  0.49441583  0.00956037  0.44445351     0.09100
C747        C  0.47430375  0.03089229  0.43166237    -0.02400
C748        C  0.44084277  0.06682830  0.43337445    -0.00700
C749        C  0.42623320  0.08034144  0.44787270    -0.04300
C750        C  0.44706489  0.05966570  0.46064205     0.02700
C751        C  0.52873421  0.97029247  0.44284921     0.09500
C752        C  0.48708845  0.01485625  0.41677455     0.35400
C753        C  0.43334399  0.07448042  0.47560076     0.38900
C754        C  0.51533677  0.92436006  0.44651655    -0.04700
C755        C  0.54882277  0.88812645  0.44691870     0.02500
C756        C  0.59654710  0.89730279  0.44331535    -0.04300
C757        C  0.60826885  0.94281180  0.43799528    -0.00500
C758        C  0.57500158  0.97924663  0.43836158    -0.03100
C759        C  0.46688395  0.91470333  0.45025329     0.36200
C760        C  0.65429283  0.95309143  0.43202271     0.39800
C761        C  0.53318446  0.84171016  0.45114089     0.38900
C762        C  0.58890288  0.02666255  0.43470726     0.35800
C763        C  0.50331418  0.00452135  0.47212116     0.36500
C764        C  0.42034738  0.08883621  0.42025656     0.39800
N765        N  0.52042690  0.80483987  0.45454274    -0.38300
N766        N  0.42827860  0.90713374  0.45325480    -0.39900
N767        N  0.69073401  0.96158742  0.42709576    -0.37600
N768        N  0.59998764  0.06451043  0.43187102    -0.40000
N769        N  0.49736039  0.00192194  0.40490939    -0.39800
N770        N  0.40407236  0.10662384  0.40981347    -0.37400
N771        N  0.42243758  0.08618627  0.48753603    -0.38500
N772        N  0.52068999  0.98824123  0.48263270    -0.40100
C773        C  0.51409411  0.80029547  0.50479308    -0.05100
C774        C  0.49980718  0.75514136  0.50924500     0.09100
C775        C  0.52942536  0.71654775  0.50667853    -0.02400
C776        C  0.57173888  0.72253568  0.49885311    -0.00700
C777        C  0.58505676  0.76734794  0.49379888    -0.04300
C778        C  0.55666473  0.80639435  0.49705249     0.02700
C779        C  0.45063227  0.74658600  0.51414300     0.09500
C780        C  0.51522418  0.67028187  0.51151986     0.35400
C781        C  0.56958534  0.85221140  0.49144884     0.38900
C782        C  0.41534396  0.74452596  0.50311890    -0.04700
C783        C  0.36980440  0.73099237  0.50706223     0.02500
C784        C  0.35893837  0.71955012  0.52215134    -0.04300
C785        C  0.39397570  0.72275842  0.53327891    -0.00500
C786        C  0.43979842  0.73634027  0.52926867    -0.03100
C787        C  0.42625135  0.75535846  0.48756464     0.36200
C788        C  0.38261665  0.71336108  0.54886166     0.39800
C789        C  0.33469238  0.72673845  0.49534476     0.38900
C790        C  0.47586508  0.73982645  0.54064241     0.35800
C791        C  0.48386826  0.84004894  0.50755518     0.36500
C792        C  0.60105649  0.68233556  0.49568717     0.39800
N793        N  0.30686486  0.72307476  0.48598362    -0.38300
N794        N  0.43495752  0.76422547  0.47519375    -0.39900
N795        N  0.37350112  0.70601527  0.56130674    -0.37600
N796        N  0.50468482  0.74266543  0.54971636    -0.40000
N797        N  0.50377280  0.63351243  0.51546409    -0.39800
N798        N  0.62427997  0.65024917  0.49307539    -0.37400
N799        N  0.57994959  0.88856342  0.48684390    -0.38500
N800        N  0.45971683  0.87178323  0.50970290    -0.40100
C801        C  0.93996971  0.81002424  0.48232256    -0.05100
C802        C  0.95463397  0.76350582  0.47994640     0.09100
C803        C  0.92690518  0.73310931  0.47127115    -0.02400
C804        C  0.88292595  0.74796008  0.46605369    -0.00700
C805        C  0.86593170  0.79274927  0.46989470    -0.04300
C806        C  0.89579663  0.82485508  0.47713940     0.02700
C807        C  0.99708984  0.74531369  0.48773368     0.09500
C808        C  0.94255111  0.68572459  0.46846083     0.35400
C809        C  0.88041248  0.87234697  0.47989692     0.38900
C810        C  0.99221788  0.72196187  0.50160129    -0.04700
C811        C  0.03205394  0.70661655  0.50945667     0.02500
C812        C  0.07711390  0.71564133  0.50369603    -0.04300
C813        C  0.08191205  0.73760672  0.48953155    -0.00500
C814        C  0.04187234  0.75212066  0.48153151    -0.03100
C815        C  0.94613541  0.71515687  0.50803841     0.36200
C816        C  0.12796755  0.74794837  0.48359574     0.39800
C817        C  0.02656455  0.68129703  0.52346010     0.38900
C818        C  0.04660910  0.77532313  0.46713080     0.35800
C819        C  0.96912958  0.84166095  0.49091337     0.36500
C820        C  0.85469020  0.71695221  0.45689314     0.39800
N821        N  0.02174444  0.66080907  0.53455671    -0.38300
N822        N  0.90943901  0.70996050  0.51322538    -0.39900
N823        N  0.16470041  0.75634997  0.47888699    -0.37600
N824        N  0.05023885  0.79389419  0.45563969    -0.40000
N825        N  0.95492760  0.64782680  0.46631892    -0.39800
N826        N  0.83219107  0.69241284  0.44952236    -0.37400
N827        N  0.86855397  0.91045437  0.48196310    -0.38500
N828        N  0.99231697  0.86685625  0.49781568    -0.40100
C829        C  0.08844747  0.49638902  0.55208042    -0.05100
C830        C  0.04304733  0.50737978  0.55716883     0.09100
C831        C  0.03354979  0.55265390  0.56256982    -0.02400
C832        C  0.06819996  0.58764595  0.56191017    -0.00700
C833        C  0.11248349  0.57797988  0.55550573    -0.04300
C834        C  0.12322549  0.53142590  0.55133790     0.02700
C835        C  0.00404621  0.47276289  0.55547522     0.09500
C836        C  0.98737938  0.56360858  0.56828362     0.35400
C837        C  0.16919163  0.51956921  0.54565221     0.38900
C838        C  0.99411126  0.43998958  0.56689443    -0.04700
C839        C  0.95758915  0.40724548  0.56497993     0.02500
C840        C  0.93058126  0.40741826  0.55170114    -0.04300
C841        C  0.94062223  0.44021517  0.54028556    -0.00500
C842        C  0.97707260  0.47283194  0.54219593    -0.03100
C843        C  0.02209632  0.43946867  0.58045980     0.36200
C844        C  0.91493832  0.43909320  0.52623757     0.39800
C845        C  0.94858523  0.37240697  0.57644912     0.38900
C846        C  0.98775531  0.50590870  0.53032312     0.35800
C847        C  0.09865954  0.44934569  0.54699898     0.36500
C848        C  0.05823461  0.63371765  0.56789881     0.39800
N849        N  0.94133349  0.34438588  0.58552786    -0.38300
N850        N  0.04453026  0.43900171  0.59127605    -0.39900
N851        N  0.89506950  0.43839856  0.51491745    -0.37600
N852        N  0.99654314  0.53230906  0.52089015    -0.40000
N853        N  0.95046246  0.57226138  0.57279603    -0.39800
N854        N  0.05036953  0.67046872  0.57268416    -0.37400
N855        N  0.20574686  0.50931059  0.54117539    -0.38500
N856        N  0.10670717  0.41178846  0.54294880    -0.40100
C857        C  0.08965095  0.18540835  0.48409120    -0.05100
C858        C  0.07430958  0.22762163  0.47754191     0.09100
C859        C  0.10156641  0.24949453  0.46638307    -0.02400
C860        C  0.14572716  0.23103129  0.46257975    -0.00700
C861        C  0.16263604  0.19090506  0.47005718    -0.04300
C862        C  0.13362169  0.16693916  0.48028746     0.02700
C863        C  0.03202237  0.25116343  0.48374331     0.09500
C864        C  0.08519155  0.29233682  0.45947504     0.35400
C865        C  0.14958986  0.12374893  0.48714584     0.38900
C866        C  0.03682260  0.28093136  0.49627505    -0.04700
C867        C  0.99695027  0.29580313  0.50420494     0.02500
C868        C  0.95216520  0.28118698  0.49954389    -0.04300
C869        C  0.94718161  0.25502162  0.48618077    -0.00500
C870        C  0.98717967  0.23980612  0.47832697    -0.03100
C871        C  0.08305364  0.29426770  0.50142122     0.36200
C872        C  0.90112803  0.24061188  0.48118986     0.39800
C873        C  0.00216826  0.32520308  0.51736569     0.38900
C874        C  0.98241675  0.21048752  0.46514452     0.35800
C875        C  0.06134419  0.16245985  0.49541849     0.36500
C876        C  0.17496113  0.25504309  0.45174464     0.39800
N877        N  0.00696171  0.34880827  0.52780263    -0.38300
N878        N  0.12000226  0.30477628  0.50547122    -0.39900
N879        N  0.86434747  0.22900655  0.47729548    -0.37600
N880        N  0.97863278  0.18707167  0.45462070    -0.40000
N881        N  0.07207948  0.32660533  0.45401131    -0.39800
N882        N  0.19828221  0.27408087  0.44307165    -0.37400
N883        N  0.16239716  0.08926899  0.49255231    -0.38500
N884        N  0.03900608  0.14423361  0.50452796    -0.40100
C885        C  0.61486411  0.22109959  0.51200636    -0.05100
C886        C  0.57858972  0.24929795  0.51753320     0.09100
C887        C  0.58861241  0.28477131  0.52798571    -0.02400
C888        C  0.63546419  0.29479223  0.53194974    -0.00700
C889        C  0.67296887  0.26984646  0.52514105    -0.04300
C890        C  0.66164660  0.23105189  0.51568069     0.02700
C891        C  0.53108143  0.24468170  0.51070062     0.09500
C892        C  0.55051184  0.31160164  0.53437841     0.35400
C893        C  0.69753803  0.20178226  0.50902706     0.38900
C894        C  0.49813108  0.21297839  0.51658746    -0.04700
C895        C  0.45675656  0.20306169  0.50852165     0.02500
C896        C  0.44867612  0.22432872  0.49440312    -0.04300
C897        C  0.48091244  0.25759789  0.48888013    -0.00500
C898        C  0.52174913  0.26787281  0.49704654    -0.03100
C899        C  0.50756374  0.18973843  0.53073656     0.36200
C900        C  0.47188769  0.28187131  0.47485147     0.39800
C901        C  0.42359168  0.16954285  0.51446487     0.38900
C902        C  0.55500194  0.30162309  0.49124010     0.35800
C903        C  0.60384681  0.18275177  0.50190434     0.36500
C904        C  0.64431769  0.33094095  0.54299402     0.39800
N905        N  0.39716447  0.14278063  0.51922784    -0.38300
N906        N  0.51515302  0.17127128  0.54204433    -0.39900
N907        N  0.46474850  0.30120740  0.46366276    -0.37600
N908        N  0.58161838  0.32853896  0.48668497    -0.40000
N909        N  0.52002279  0.33283248  0.53950861    -0.39800
N910        N  0.65108865  0.35968216  0.55187148    -0.37400
N911        N  0.72648650  0.17904761  0.50365239    -0.38500
N912        N  0.59480782  0.15231298  0.49386519    -0.40100
C913        C  0.82998498  0.07680123  0.50823465    -0.05100
C914        C  0.78758338  0.05939125  0.51405748     0.09100
C915        C  0.76498286  0.08335272  0.52586160    -0.02400
C916        C  0.78327231  0.12606799  0.53121458    -0.00700
C917        C  0.82448185  0.14462218  0.52483619    -0.04300
C918        C  0.84860019  0.11894491  0.51371675     0.02700
C919        C  0.76787502  0.01498599  0.50788150     0.09500
C920        C  0.72236145  0.06448557  0.53221389     0.35400
C921        C  0.89249672  0.13630576  0.50776299     0.38900
C922        C  0.78784690  0.97201421  0.51208008    -0.04700
C923        C  0.77445420  0.93045351  0.50477155     0.02500
C924        C  0.74038630  0.93152855  0.49309168    -0.04300
C925        C  0.71737058  0.97433406  0.48996614    -0.00500
C926        C  0.73186576  0.01594004  0.49706242    -0.03100
C927        C  0.82383018  0.97101203  0.52358891     0.36200
C928        C  0.67813216  0.97595047  0.47962154     0.39800
C929        C  0.79762632  0.88734752  0.50906010     0.38900
C930        C  0.71082333  0.05993173  0.49270043     0.35800
C931        C  0.85385533  0.05187203  0.49628815     0.36500
C932        C  0.75801219  0.15240590  0.54251700     0.39800
N933        N  0.81638104  0.85315418  0.51253228    -0.38300
N934        N  0.85262907  0.97041920  0.53270789    -0.39900
N935        N  0.64665919  0.97747328  0.47147830    -0.37600
N936        N  0.69340348  0.09440868  0.48886989    -0.40000
N937        N  0.68834377  0.04928348  0.53725007    -0.39800
N938        N  0.73783178  0.17357424  0.55149457    -0.37400
N939        N  0.92758924  0.15000649  0.50305981    -0.38500
N940        N  0.87286635  0.03196543  0.48676614    -0.40100
C941        C  0.78457477  0.47017937  0.47949832    -0.05100
C942        C  0.75366758  0.50420169  0.48513723     0.09100
C943        C  0.73238710  0.49761366  0.49928320    -0.02400
C944        C  0.74495951  0.45923279  0.50831958    -0.00700
C945        C  0.77766373  0.42613908  0.50301687    -0.04300
C946        C  0.79617471  0.43087661  0.48833352     0.02700
C947        C  0.75004983  0.55095904  0.47779281     0.09500
C948        C  0.69822712  0.53116470  0.50465302     0.35400
C949        C  0.82879630  0.39654391  0.48253572     0.38900
C950        C  0.71670254  0.56021858  0.46651564    -0.04700
C951        C  0.70789282  0.60678944  0.46196676     0.02500
C952        C  0.73193198  0.64417545  0.46894901    -0.04300
C953        C  0.76793637  0.63394320  0.47943539    -0.00500
C954        C  0.77739041  0.58755734  0.48356611    -0.03100
C955        C  0.69039413  0.52197364  0.46004380     0.36200
C956        C  0.79446573  0.67072830  0.48669414     0.39800
C957        C  0.67165922  0.61614803  0.45099476     0.38900
C958        C  0.81410876  0.57739392  0.49438367     0.35800
C959        C  0.80543805  0.47653888  0.46479750     0.36500
C960        C  0.72390216  0.45374646  0.52304618     0.39800
N961        N  0.64261799  0.62341994  0.44225197    -0.38300
N962        N  0.66953753  0.49139768  0.45482978    -0.39900
N963        N  0.81624475  0.69856616  0.49298820    -0.37600
N964        N  0.84329974  0.56912783  0.50298415    -0.40000
N965        N  0.67079691  0.55780113  0.50888006    -0.39800
N966        N  0.70724061  0.44952245  0.53481336    -0.37400
N967        N  0.85477283  0.36923088  0.47782843    -0.38500
N968        N  0.82189515  0.48169328  0.45303932    -0.40100
C969        C  0.00624458  0.55602722  0.95645443    -0.05100
C970        C  0.01015092  0.53188967  0.94271528     0.09100
C971        C  0.97839241  0.54178328  0.93097984    -0.02400
C972        C  0.94326790  0.57611253  0.93291995    -0.00700
C973        C  0.93954769  0.60059124  0.94667381    -0.04300
C974        C  0.97067114  0.58945127  0.95853478     0.02700
C975        C  0.04551637  0.49341593  0.94125458     0.09500
C976        C  0.98189462  0.51640201  0.91693631     0.35400
C977        C  0.96398779  0.60945356  0.97335073     0.38900
C978        C  0.03167417  0.44673016  0.94346217    -0.04700
C979        C  0.06532578  0.41069849  0.94401496     0.02500
C980        C  0.11373294  0.42115281  0.94288000    -0.04300
C981        C  0.12716818  0.46794329  0.93984233    -0.00500
C982        C  0.09318722  0.50375329  0.93902177    -0.03100
C983        C  0.98263318  0.43607486  0.94585899     0.36200
C984        C  0.17588479  0.47946603  0.93729796     0.39800
C985        C  0.04936066  0.36320983  0.94622365     0.38900
C986        C  0.10727147  0.55161359  0.93621476     0.35800
C987        C  0.03841508  0.54561952  0.96862645     0.36500
C988        C  0.91127996  0.58633889  0.92072226     0.39800
N989        N  0.03560149  0.32556024  0.94778130    -0.38300
N990        N  0.94354428  0.42774426  0.94781329    -0.39900
N991        N  0.21472979  0.48868690  0.93524618    -0.37600
N992        N  0.11846300  0.58982930  0.93399510    -0.40000
N993        N  0.98468912  0.49593549  0.90576330    -0.39800
N994        N  0.88564155  0.59425307  0.91099136    -0.37400
N995        N  0.95853078  0.62409304  0.98533520    -0.38500
N996        N  0.06425477  0.53745197  0.97827978    -0.40100
C997        C  0.33863806  0.73302435  0.10909628    -0.05100
C998        C  0.30322450  0.75452918  0.11770575     0.09100
C999        C  0.27065709  0.78410933  0.11053810    -0.02400
C1000       C  0.27405340  0.79289368  0.09493715    -0.00700
C1001       C  0.31129156  0.77373442  0.08643821    -0.04300
C1002       C  0.34311784  0.74295638  0.09361815     0.02700
C1003       C  0.30214845  0.74756843  0.13445171     0.09500
C1004       C  0.23429231  0.80644608  0.11931523     0.35400
C1005       C  0.38194730  0.72292289  0.08534399     0.38900
C1006       C  0.33620205  0.76933791  0.14350962    -0.04700
C1007       C  0.33913573  0.75904049  0.15898330     0.02500
C1008       C  0.30655566  0.72821759  0.16579414    -0.04300
C1009       C  0.27094159  0.70823415  0.15679173    -0.00500
C1010       C  0.26911189  0.71750772  0.14117610    -0.03100
C1011       C  0.36864299  0.80227132  0.13680726     0.36200
C1012       C  0.23549968  0.67883288  0.16358317     0.39800
C1013       C  0.37749218  0.77847845  0.16763028     0.38900
C1014       C  0.23343110  0.69584158  0.13195653     0.35800
C1015       C  0.37121010  0.70126171  0.11631851     0.36500
C1016       C  0.23831060  0.82061743  0.08757632     0.39800
N1017       N  0.40819305  0.79382164  0.17450363    -0.38300
N1018       N  0.39438151  0.82861503  0.13145578    -0.39900
N1019       N  0.20710431  0.65548426  0.16898773    -0.37600
N1020       N  0.20486554  0.67881124  0.12456740    -0.40000
N1021       N  0.20532156  0.82430146  0.12633514    -0.39800
N1022       N  0.20957727  0.84237313  0.08167197    -0.37400
N1023       N  0.41297441  0.70688441  0.07878948    -0.38500
N1024       N  0.39713639  0.67604239  0.12213917    -0.40100
C1025       C  0.11109813  0.74102206  0.03051973    -0.05100
C1026       C  0.08106661  0.77106739  0.02244402     0.09100
C1027       C  0.09350180  0.81839857  0.02051348    -0.02400
C1028       C  0.13772408  0.83440184  0.02520626    -0.00700
C1029       C  0.16911945  0.80359410  0.03237779    -0.04300
C1030       C  0.15476276  0.75755353  0.03572169     0.02700
C1031       C  0.03927876  0.75247377  0.01423473     0.09500
C1032       C  0.06153609  0.84999127  0.01296482     0.35400
C1033       C  0.18617611  0.72643741  0.04368659     0.38900
C1034       C  0.99425948  0.75529554  0.02058473    -0.04700
C1035       C  0.95434564  0.74546529  0.01175326     0.02500
C1036       C  0.95920655  0.73414962  0.99631749    -0.04300
C1037       C  0.00470428  0.73005847  0.99015102    -0.00500
C1038       C  0.04440362  0.73785482  0.99919993    -0.03100
C1039       C  0.98909405  0.77014257  0.03606438     0.36200
C1040       C  0.01115536  0.71861164  0.97440350     0.39800
C1041       C  0.90826213  0.75050902  0.01833045     0.38900
C1042       C  0.09087918  0.73199446  0.99294524     0.35800
C1043       C  0.09818027  0.69256971  0.03271948     0.36500
C1044       C  0.15187166  0.88204819  0.02203029     0.39800
N1045       N  0.87148024  0.75471404  0.02356241    -0.38300
N1046       N  0.98506063  0.78213944  0.04840882    -0.39900
N1047       N  0.01684109  0.70983903  0.96184488    -0.37600
N1048       N  0.12799500  0.72698487  0.98804206    -0.40000
N1049       N  0.03574026  0.87496641  0.00698173    -0.39800
N1050       N  0.16323802  0.91999676  0.01944710    -0.37400
N1051       N  0.21122479  0.70182418  0.05013312    -0.38500
N1052       N  0.08805320  0.65380616  0.03443485    -0.40100
C1053       C  0.49780815  0.77234847  0.98160694    -0.05100
C1054       C  0.53424537  0.74641800  0.98835968     0.09100
C1055       C  0.52881815  0.72992619  0.00319515    -0.02400
C1056       C  0.48782129  0.73987325  0.01132241    -0.00700
C1057       C  0.45212838  0.76780446  0.00487792    -0.04300
C1058       C  0.45696444  0.78325160  0.98985863     0.02700
C1059       C  0.58023453  0.73945811  0.98056480     0.09500
C1060       C  0.56623219  0.70373510  0.01031874     0.35400
C1061       C  0.42096431  0.81207785  0.98309680     0.38900
C1062       C  0.61217764  0.77673151  0.97977040    -0.04700
C1063       C  0.65870973  0.76875876  0.97523441     0.02500
C1064       C  0.67474622  0.72274122  0.97207775    -0.04300
C1065       C  0.64135088  0.68591587  0.97182332    -0.00500
C1066       C  0.59429745  0.69458073  0.97583928    -0.03100
C1067       C  0.59772534  0.82318108  0.98441482     0.36200
C1068       C  0.65519444  0.63838416  0.96833139     0.39800
C1069       C  0.68980475  0.80852872  0.97413406     0.38900
C1070       C  0.56050281  0.65681474  0.97576808     0.35800
C1071       C  0.50295264  0.78876032  0.96628853     0.36500
C1072       C  0.48228623  0.72038412  0.02628934     0.39800
N1073       N  0.71398989  0.84077705  0.97344484    -0.38300
N1074       N  0.58615340  0.86015726  0.98812279    -0.39900
N1075       N  0.66598404  0.60035266  0.96559951    -0.37600
N1076       N  0.53352617  0.62672478  0.97573053    -0.40000
N1077       N  0.59599925  0.68283963  0.01600313    -0.39800
N1078       N  0.47797002  0.70478429  0.03820787    -0.37400
N1079       N  0.39221259  0.83515654  0.97774806    -0.38500
N1080       N  0.50716994  0.80207461  0.95408590    -0.40100
C1081       C  0.30152898  0.48362651  0.00687883    -0.05100
C1082       C  0.26535569  0.51621346  0.00934282     0.09100
C1083       C  0.21889888  0.50422111  0.00556244    -0.02400
C1084       C  0.20916344  0.46100190  0.99851317    -0.00700
C1085       C  0.24595451  0.42986405  0.99511335    -0.04300
C1086       C  0.29187845  0.44063531  0.99981371     0.02700
C1087       C  0.27737537  0.56498247  0.01415849     0.09500
C1088       C  0.18151893  0.53728127  0.00836407     0.35400
C1089       C  0.32947498  0.40761868  0.99716608     0.38900
C1090       C  0.28446200  0.59956482  0.00310616    -0.04700
C1091       C  0.29817900  0.64499224  0.00727744     0.02500
C1092       C  0.30502513  0.65647760  0.02259506    -0.04300
C1093       C  0.29860564  0.62169308  0.03367065    -0.00500
C1094       C  0.28447821  0.57612401  0.02945268    -0.03100
C1095       C  0.27798144  0.58815499  0.98735369     0.36200
C1096       C  0.30529088  0.63306140  0.04938987     0.39800
C1097       C  0.30647385  0.67972027  0.99567942     0.38900
C1098       C  0.27670462  0.54070459  0.04080956     0.35800
C1099       C  0.34913212  0.49535990  0.01099778     0.36500
C1100       C  0.16182191  0.44972579  0.99398156     0.39800
N1101       N  0.31314332  0.70740380  0.98644941    -0.38300
N1102       N  0.27275518  0.57898460  0.97480317    -0.39900
N1103       N  0.31058527  0.64211818  0.06194710    -0.37600
N1104       N  0.27031553  0.51232918  0.04983730    -0.40000
N1105       N  0.15175450  0.56376377  0.01058931    -0.39800
N1106       N  0.12410431  0.44052113  0.99034678    -0.37400
N1107       N  0.35942059  0.38125206  0.99507078    -0.38500
N1108       N  0.38708251  0.50483779  0.01428296    -0.40100
C1109       C  0.27384933  0.08681105  0.97073084    -0.05100
C1110       C  0.24555842  0.06277600  0.98114995     0.09100
C1111       C  0.20112244  0.08087259  0.98485554    -0.02400
C1112       C  0.18699938  0.12495859  0.97933605    -0.00700
C1113       C  0.21710860  0.15089941  0.96992256    -0.04300
C1114       C  0.25944902  0.13053868  0.96502263     0.02700
C1115       C  0.26394541  0.02060890  0.98924589     0.09500
C1116       C  0.17085834  0.05488447  0.99490300     0.35400
C1117       C  0.28881532  0.15546754  0.95443021     0.38900
C1118       C  0.28455202  0.02579114  0.00356628    -0.04700
C1119       C  0.29898142  0.98615585  0.01179527     0.02500
C1120       C  0.29287473  0.94086382  0.00577259    -0.04300
C1121       C  0.27371896  0.93586148  0.99119069    -0.00500
C1122       C  0.25938980  0.97563247  0.98296923    -0.03100
C1123       C  0.29017082  0.07209587  0.00993195     0.36200
C1124       C  0.26614720  0.88966501  0.98496738     0.39800
C1125       C  0.32040847  0.99212857  0.02644726     0.38900
C1126       C  0.23869750  0.97031695  0.96820510     0.35800
C1127       C  0.31869360  0.06746784  0.96642307     0.36500
C1128       C  0.14300334  0.14484532  0.98425743     0.39800
N1129       N  0.33754408  0.99712051  0.03811577    -0.38300
N1130       N  0.29452425  0.10905255  0.01499863    -0.39900
N1131       N  0.26003365  0.85274927  0.98005847    -0.37600
N1132       N  0.22220280  0.96615234  0.95641133    -0.40000
N1133       N  0.14678400  0.03401091  0.00290336    -0.39800
N1134       N  0.10780919  0.16018487  0.98832318    -0.37400
N1135       N  0.31199910  0.17549606  0.94594730    -0.38500
N1136       N  0.35448511  0.05197696  0.96299412    -0.40100
C1137       C  0.68723760  0.25986539  0.10653469    -0.05100
C1138       C  0.72850335  0.24894827  0.11447003     0.09100
C1139       C  0.76694955  0.22995545  0.10664355    -0.02400
C1140       C  0.76381234  0.22094369  0.09103043    -0.00700
C1141       C  0.72227342  0.23148926  0.08305046    -0.04300
C1142       C  0.68420286  0.25166378  0.09091789     0.02700
C1143       C  0.73077737  0.25740760  0.13113085     0.09500
C1144       C  0.80971267  0.21964818  0.11472009     0.35400
C1145       C  0.64104166  0.26262620  0.08310557     0.38900
C1146       C  0.71276422  0.22391887  0.14121286    -0.04700
C1147       C  0.70851918  0.23446764  0.15666976     0.02500
C1148       C  0.72336995  0.27832964  0.16226464    -0.04300
C1149       C  0.74452249  0.31049234  0.15228675    -0.00500
C1150       C  0.74762760  0.30027212  0.13676786    -0.03100
C1151       C  0.69809339  0.17870383  0.13558738     0.36200
C1152       C  0.76108902  0.35512309  0.15783130     0.39800
C1153       C  0.68911162  0.19982393  0.16679059     0.38900
C1154       C  0.76682446  0.33445956  0.12646396     0.35800
C1155       C  0.64748138  0.27901847  0.11456350     0.36500
C1156       C  0.80384801  0.20190863  0.08313621     0.39800
N1157       N  0.67357954  0.17178884  0.17471338    -0.38300
N1158       N  0.68667677  0.14255425  0.13108640    -0.39900
N1159       N  0.77444411  0.39064944  0.16229235    -0.37600
N1160       N  0.78205785  0.36167002  0.11819446    -0.40000
N1161       N  0.84385275  0.21160174  0.12119255    -0.39800
N1162       N  0.83583135  0.18676136  0.07684390    -0.37400
N1163       N  0.60670153  0.27154302  0.07685907    -0.38500
N1164       N  0.61578108  0.29409503  0.12101506    -0.40100
C1165       C  0.59374296  0.00696032  0.05646591    -0.05100
C1166       C  0.54582977  0.01590088  0.05399719     0.09100
C1167       C  0.53144407  0.06188435  0.05056964    -0.02400
C1168       C  0.56471160  0.09794072  0.04868485    -0.00700
C1169       C  0.61312226  0.08884802  0.05065153    -0.04300
C1170       C  0.62708513  0.04326764  0.05505719     0.02700
C1171       C  0.51076830  0.97652545  0.05357474     0.09500
C1172       C  0.48207831  0.07179475  0.04857242     0.35400
C1173       C  0.67582540  0.03350657  0.05825663     0.38900
C1174       C  0.49416522  0.95523822  0.06690376    -0.04700
C1175       C  0.45908167  0.92024641  0.06623736     0.02500
C1176       C  0.43936110  0.90738602  0.05228197    -0.04300
C1177       C  0.45719224  0.92759376  0.03895752    -0.00500
C1178       C  0.49287471  0.96153883  0.03959573    -0.03100
C1179       C  0.51221359  0.97038906  0.08130989     0.36200
C1180       C  0.43922846  0.91299322  0.02445361     0.39800
C1181       C  0.44244582  0.89836178  0.07990975     0.38900
C1182       C  0.51099828  0.98158436  0.02579650     0.35800
C1183       C  0.60892389  0.95992926  0.06003024     0.36500
C1184       C  0.54862403  0.14369806  0.04394106     0.39800
N1185       N  0.42934386  0.88065469  0.09081369    -0.38300
N1186       N  0.52668995  0.98259327  0.09279634    -0.39900
N1187       N  0.42528707  0.90146517  0.01283059    -0.37600
N1188       N  0.52546071  0.99776953  0.01482829    -0.40000
N1189       N  0.44272051  0.07961087  0.04695248    -0.39800
N1190       N  0.53502828  0.17990215  0.04014328    -0.37400
N1191       N  0.71471931  0.02575955  0.06080998    -0.38500
N1192       N  0.62102352  0.92239099  0.06288617    -0.40100
C1193       C  0.45050351  0.30157537  0.96689687    -0.05100
C1194       C  0.45929736  0.26404028  0.97673260     0.09100
C1195       C  0.42249871  0.23529701  0.98155679    -0.02400
C1196       C  0.37626007  0.24670420  0.97784154    -0.00700
C1197       C  0.36659624  0.28597139  0.96858427    -0.04300
C1198       C  0.40416567  0.31231353  0.96266483     0.02700
C1199       C  0.50531215  0.25882227  0.98426692     0.09500
C1200       C  0.43222038  0.19566850  0.99131521     0.35400
C1201       C  0.39512571  0.35301275  0.95341206     0.38900
C1202       C  0.51088878  0.27776153  0.99877900    -0.04700
C1203       C  0.55017939  0.26604952  0.00740303     0.02500
C1204       C  0.58430329  0.23549735  0.00150626    -0.04300
C1205       C  0.57997029  0.21842102  0.98668793    -0.00500
C1206       C  0.54015999  0.22981970  0.97810394    -0.03100
C1207       C  0.47532688  0.30829488  0.00502227     0.36200
C1208       C  0.61558533  0.18796157  0.98048995     0.39800
C1209       C  0.55600983  0.28656716  0.02221303     0.38900
C1210       C  0.53420769  0.21080302  0.96313936     0.35800
C1211       C  0.48894958  0.33059608  0.96189058     0.36500
C1212       C  0.33927755  0.21910193  0.98455699     0.39800
N1213       N  0.56063601  0.30299881  0.03399814    -0.38300
N1214       N  0.44704525  0.33252375  0.01007699    -0.39900
N1215       N  0.64403295  0.16367808  0.97554971    -0.37600
N1216       N  0.52932449  0.19572760  0.95118092    -0.40000
N1217       N  0.44003133  0.16429586  0.99912741    -0.39800
N1218       N  0.31187994  0.19607160  0.99059183    -0.37400
N1219       N  0.38794870  0.38558086  0.94605848    -0.38500
N1220       N  0.51974713  0.35370107  0.95793872    -0.40100
C1221       C  0.94942354  0.19660507  0.02306545    -0.05100
C1222       C  0.96053071  0.24231063  0.01835505     0.09100
C1223       C  0.92786229  0.27852981  0.02010681    -0.02400
C1224       C  0.88236026  0.26822865  0.02495938    -0.00700
C1225       C  0.86976489  0.22188061  0.02862704    -0.04300
C1226       C  0.90410721  0.18647002  0.02838829     0.02700
C1227       C  0.00324511  0.25137520  0.00932204     0.09500
C1228       C  0.94015314  0.32594518  0.01580152     0.35400
C1229       C  0.89174044  0.13896220  0.03238509     0.38900
C1230       C  0.00256154  0.24165978  0.99379761    -0.04700
C1231       C  0.04143379  0.25245717  0.98483680     0.02500
C1232       C  0.08042950  0.27529966  0.99122589    -0.04300
C1233       C  0.08070169  0.28577424  0.00678043    -0.00500
C1234       C  0.04238152  0.27315622  0.01583630    -0.03100
C1235       C  0.96148932  0.22088098  0.98697959     0.36200
C1236       C  0.11991308  0.31027727  0.01346486     0.39800
C1237       C  0.04234376  0.23691164  0.96931345     0.38900
C1238       C  0.04285316  0.28281047  0.03182899     0.35800
C1239       C  0.98372165  0.15966322  0.02145329     0.36500
C1240       C  0.84818443  0.30534716  0.02506943     0.39800
N1241       N  0.04316476  0.22385162  0.95701072    -0.38300
N1242       N  0.92879830  0.20452954  0.98145035    -0.39900
N1243       N  0.15110629  0.32983569  0.01882887    -0.37600
N1244       N  0.04313737  0.29039039  0.04459927    -0.40000
N1245       N  0.95000949  0.36368028  0.01238877    -0.39800
N1246       N  0.82288458  0.33674872  0.02470110    -0.37400
N1247       N  0.88184112  0.10105383  0.03557363    -0.38500
N1248       N  0.01117881  0.13029688  0.02005498    -0.40100
C1249       C  0.78676206  0.93684435  0.96378882    -0.05100
C1250       C  0.80421630  0.95840151  0.97690521     0.09100
C1251       C  0.83898824  0.93569733  0.98541844    -0.02400
C1252       C  0.85313330  0.89005527  0.98168046    -0.00700
C1253       C  0.83230878  0.86639766  0.96941830    -0.04300
C1254       C  0.80126304  0.89108742  0.95991215     0.02700
C1255       C  0.78316563  0.00260549  0.98288880     0.09500
C1256       C  0.85864205  0.95868266  0.99850761     0.35400
C1257       C  0.78168131  0.86840834  0.94677438     0.38900
C1258       C  0.74671237  0.99978973  0.99353801    -0.04700
C1259       C  0.73232463  0.03995898  0.00145919     0.02500
C1260       C  0.75470909  0.08314051  0.99896976    -0.04300
C1261       C  0.78926506  0.08657832  0.98767834    -0.00500
C1262       C  0.80336640  0.04639043  0.97961680    -0.03100
C1263       C  0.72550863  0.95494610  0.99685781     0.36200
C1264       C  0.81162561  0.13109145  0.98482237     0.39800
C1265       C  0.69450856  0.03668031  0.01222529     0.38900
C1266       C  0.83989015  0.04956056  0.96838307     0.35800
C1267       C  0.75229549  0.96093722  0.95472117     0.36500
C1268       C  0.88909821  0.86739539  0.99058617     0.39800
N1269       N  0.66386905  0.03352687  0.02063284    -0.38300
N1270       N  0.70875711  0.91915243  0.99957235    -0.39900
N1271       N  0.82926030  0.16676098  0.98257510    -0.37600
N1272       N  0.86897393  0.05196043  0.95938565    -0.40000
N1273       N  0.87410934  0.97712753  0.00894803    -0.39800
N1274       N  0.91789286  0.84964195  0.99771302    -0.37400
N1275       N  0.76602740  0.85021341  0.93631466    -0.38500
N1276       N  0.72473653  0.98015320  0.94747985    -0.40100
C1277       C  0.69972583  0.42848770  0.00671380    -0.05100
C1278       C  0.73228322  0.45373132  0.01540069     0.09100
C1279       C  0.74846836  0.43477282  0.02908781    -0.02400
C1280       C  0.73529997  0.38910944  0.03336707    -0.00700
C1281       C  0.70805225  0.36156374  0.02358114    -0.04300
C1282       C  0.68821017  0.38218582  0.01064896     0.02700
C1283       C  0.75290415  0.49784131  0.00923530     0.09500
C1284       C  0.78018808  0.46154490  0.03839062     0.35400
C1285       C  0.65741180  0.35536443  0.00102609     0.38900
C1286       C  0.73023082  0.54102822  0.01125106    -0.04700
C1287       C  0.74714539  0.58150764  0.00396371     0.02500
C1288       C  0.78726832  0.57909679  0.99455331    -0.04300
C1289       C  0.81113896  0.53588446  0.99321412    -0.00500
C1290       C  0.79380381  0.49554291  0.00042816    -0.03100
C1291       C  0.68854022  0.54335787  0.02048651     0.36200
C1292       C  0.85374788  0.53245746  0.98446416     0.39800
C1293       C  0.72150561  0.62493112  0.00565657     0.38900
C1294       C  0.81732840  0.45103246  0.99843056     0.35800
C1295       C  0.67940697  0.44975008  0.99343106     0.36500
C1296       C  0.75129123  0.36962124  0.04750790     0.39800
N1297       N  0.70112770  0.65958488  0.00704519    -0.38300
N1298       N  0.65525001  0.54515393  0.02784214    -0.39900
N1299       N  0.88770828  0.52903251  0.97750046    -0.37600
N1300       N  0.83593791  0.41549329  0.99681674    -0.40000
N1301       N  0.80562994  0.48297413  0.04577080    -0.39800
N1302       N  0.76400299  0.35386442  0.05876636    -0.37400
N1303       N  0.63274319  0.33470512  0.99316634    -0.38500
N1304       N  0.66294367  0.46700627  0.98292737    -0.40100
C1305       C  0.74303782  0.67635160  0.86224471    -0.05100
C1306       C  0.75634510  0.72162953  0.86674546     0.09100
C1307       C  0.75447435  0.75852632  0.85625237    -0.02400
C1308       C  0.74094518  0.74988789  0.84118437    -0.00700
C1309       C  0.72974107  0.70392412  0.83642389    -0.04300
C1310       C  0.72942449  0.66753697  0.84727196     0.02700
C1311       C  0.77284337  0.72944659  0.88259178     0.09500
C1312       C  0.76707153  0.80530025  0.86096909     0.35400
C1313       C  0.71361070  0.62102055  0.84324474     0.38900
C1314       C  0.82052747  0.72416257  0.88617834    -0.04700
C1315       C  0.83515750  0.72187238  0.90135138     0.02500
C1316       C  0.80201477  0.72561554  0.91318476    -0.04300
C1317       C  0.75470721  0.73532292  0.90942407    -0.00500
C1318       C  0.74029884  0.73683808  0.89422892    -0.03100
C1319       C  0.85443030  0.71985078  0.87413979     0.36200
C1320       C  0.72049494  0.74399822  0.92113984     0.39800
C1321       C  0.88405441  0.71315782  0.90458294     0.38900
C1322       C  0.69166973  0.74513053  0.89049738     0.35800
C1323       C  0.74385322  0.63850373  0.87310074     0.36500
C1324       C  0.73928966  0.78844996  0.83064224     0.39800
N1325       N  0.92313350  0.70618277  0.90709080    -0.38300
N1326       N  0.88136188  0.71677589  0.86449732    -0.39900
N1327       N  0.69320577  0.75091697  0.93047196    -0.37600
N1328       N  0.65291067  0.75188009  0.88747958    -0.40000
N1329       N  0.77716711  0.84263789  0.86473730    -0.39800
N1330       N  0.73746772  0.81956635  0.82236752    -0.37400
N1331       N  0.70089606  0.58395231  0.84005631    -0.38500
N1332       N  0.74460036  0.60845935  0.88179479    -0.40100
C1333       C  0.27842201  0.24478455  0.85529061    -0.05100
C1334       C  0.25792995  0.28265696  0.86298826     0.09100
C1335       C  0.24729248  0.32396507  0.85504353    -0.02400
C1336       C  0.25811612  0.32792416  0.83959529    -0.00700
C1337       C  0.27942509  0.29023253  0.83182374    -0.04300
C1338       C  0.28867906  0.24828946  0.83978346     0.02700
C1339       C  0.24952462  0.28010891  0.87964601     0.09500
C1340       C  0.22641742  0.36305871  0.86295687     0.35400
C1341       C  0.30785258  0.20811161  0.83201867     0.38900
C1342       C  0.28675227  0.28801439  0.88973443    -0.04700
C1343       C  0.27857922  0.28896247  0.90537280     0.02500
C1344       C  0.23288752  0.28312763  0.91108605    -0.04300
C1345       C  0.19583532  0.27364105  0.90101821    -0.00500
C1346       C  0.20419281  0.27203083  0.88535989    -0.03100
C1347       C  0.33325690  0.29704457  0.88395731     0.36200
C1348       C  0.14862664  0.26818483  0.90668220     0.39800
C1349       C  0.31743021  0.29559002  0.91560851     0.38900
C1350       C  0.16586086  0.26373919  0.87505032     0.35800
C1351       C  0.28961523  0.20235655  0.86344737     0.36500
C1352       C  0.24930635  0.37186905  0.83198005     0.39800
N1353       N  0.34869315  0.30046315  0.92369561    -0.38300
N1354       N  0.37028816  0.30448114  0.87932397    -0.39900
N1355       N  0.11096939  0.26396738  0.91122111    -0.37600
N1356       N  0.13527086  0.25736987  0.86680049    -0.40000
N1357       N  0.20973388  0.39410238  0.86932432    -0.39800
N1358       N  0.24229732  0.40700111  0.82594861    -0.37400
N1359       N  0.32298931  0.17582770  0.82590133    -0.38500
N1360       N  0.29879501  0.16866776  0.87000479    -0.40100
C1361       C  0.54692137  0.53120971  0.81527056    -0.05100
C1362       C  0.54521270  0.49258470  0.80545373     0.09100
C1363       C  0.58200864  0.48562993  0.79515972    -0.02400
C1364       C  0.61870561  0.51848789  0.79400439    -0.00700
C1365       C  0.61891159  0.55942605  0.80305111    -0.04300
C1366       C  0.58336436  0.56443573  0.81411056     0.02700
C1367       C  0.50327257  0.46081722  0.80517916     0.09500
C1368       C  0.58135948  0.44505319  0.78537858     0.35400
C1369       C  0.58412005  0.60345517  0.82450805     0.38900
C1370       C  0.46114593  0.47626595  0.79856869    -0.04700
C1371       C  0.42284543  0.44551150  0.79701746     0.02500
C1372       C  0.42700485  0.39803426  0.80137879    -0.04300
C1373       C  0.46822054  0.38352498  0.80890215    -0.00500
C1374       C  0.50602408  0.41479506  0.81081815    -0.03100
C1375       C  0.45768748  0.52362866  0.79286368     0.36200
C1376       C  0.47150889  0.33660283  0.81497313     0.39800
C1377       C  0.37957385  0.46310534  0.79068339     0.38900
C1378       C  0.54814012  0.39945751  0.81842183     0.35800
C1379       C  0.51066391  0.53693172  0.82650945     0.36500
C1380       C  0.65520693  0.51023591  0.78305458     0.39800
N1381       N  0.34508502  0.47776734  0.78578709    -0.38300
N1382       N  0.45474551  0.56137340  0.78831013    -0.39900
N1383       N  0.47401936  0.29919174  0.81983707    -0.37600
N1384       N  0.58177630  0.38717028  0.82446614    -0.40000
N1385       N  0.58094801  0.41257432  0.77764499    -0.39800
N1386       N  0.68441514  0.50305010  0.77438567    -0.37400
N1387       N  0.58458981  0.63458951  0.83279738    -0.38500
N1388       N  0.48170618  0.54147136  0.83546430    -0.40100
C1389       C  0.27403945  0.69970072  0.60945129    -0.05100
C1390       C  0.24895892  0.73694545  0.61602629     0.09100
C1391       C  0.22200456  0.76649581  0.60677232    -0.02400
C1392       C  0.21800521  0.75749445  0.59123364    -0.00700
C1393       C  0.23993390  0.71789778  0.58476269    -0.04300
C1394       C  0.26963212  0.69014941  0.59388319     0.02700
C1395       C  0.24750876  0.74342344  0.63281120     0.09500
C1396       C  0.19690191  0.80540481  0.61340680     0.35400
C1397       C  0.29402233  0.65046496  0.58748632     0.38900
C1398       C  0.27609502  0.77684241  0.63992616    -0.04700
C1399       C  0.26962316  0.78775558  0.65532510     0.02500
C1400       C  0.23422047  0.76511033  0.66386405    -0.04300
C1401       C  0.20750670  0.72946260  0.65674813    -0.00500
C1402       C  0.21401963  0.71907132  0.64136084    -0.03100
C1403       C  0.31148600  0.80089058  0.63120596     0.36200
C1404       C  0.17323193  0.70273464  0.66514574     0.39800
C1405       C  0.29832570  0.82386932  0.66203521     0.38900
C1406       C  0.18517516  0.68399343  0.63411453     0.35800
C1407       C  0.30328819  0.67040445  0.61883782     0.36500
C1408       C  0.19153011  0.78960617  0.58191331     0.39800
N1409       N  0.32136947  0.85269648  0.66733659    -0.38300
N1410       N  0.33970896  0.81998503  0.62421560    -0.39900
N1411       N  0.14591256  0.68119649  0.67176825    -0.37600
N1412       N  0.16225230  0.65609958  0.62827445    -0.40000
N1413       N  0.17682608  0.83629543  0.61875828    -0.39800
N1414       N  0.17051470  0.81560355  0.57459345    -0.37400
N1415       N  0.31363437  0.61888063  0.58237394    -0.38500
N1416       N  0.32667461  0.64704623  0.62633209    -0.40100
C1417       C  0.02216964  0.70950887  0.75660260    -0.05100
C1418       C  0.00819791  0.74335339  0.76717035     0.09100
C1419       C  0.03413463  0.78496657  0.76866143    -0.02400
C1420       C  0.07215928  0.79406249  0.75894517    -0.00700
C1421       C  0.08621563  0.76025848  0.74821766    -0.04300
C1422       C  0.06098199  0.71755165  0.74727091     0.02700
C1423       C  0.96093235  0.73858194  0.77417474     0.09500
C1424       C  0.02006483  0.81934710  0.77973642     0.35400
C1425       C  0.07333427  0.68187410  0.73636194     0.38900
C1426       C  0.95245504  0.70495087  0.78544896    -0.04700
C1427       C  0.90620386  0.69072158  0.78870815     0.02500
C1428       C  0.86823411  0.71009263  0.78061560    -0.04300
C1429       C  0.87705438  0.74671914  0.77019180    -0.00500
C1430       C  0.92304601  0.76107500  0.76715832    -0.03100
C1431       C  0.99165474  0.68304316  0.79299019     0.36200
C1432       C  0.83948695  0.76870245  0.76180793     0.39800
C1433       C  0.89837352  0.65326974  0.79937641     0.38900
C1434       C  0.93164901  0.79683620  0.75588410     0.35800
C1435       C  0.99468006  0.66724097  0.75469661     0.36500
C1436       C  0.09305547  0.84016666  0.75893126     0.39800
N1437       N  0.89217723  0.62320562  0.80783833    -0.38300
N1438       N  0.02300260  0.66552100  0.79897105    -0.39900
N1439       N  0.81089102  0.78682974  0.75469385    -0.37600
N1440       N  0.93858805  0.82532166  0.74693022    -0.40000
N1441       N  0.00882133  0.84670893  0.78859443    -0.39800
N1442       N  0.10861387  0.87745857  0.75875483    -0.37400
N1443       N  0.08254240  0.65336083  0.72763251    -0.38500
N1444       N  0.97266433  0.63370188  0.75314665    -0.40100
C1445       C  0.54320975  0.74703554  0.73352049    -0.05100
C1446       C  0.50116687  0.72502046  0.73759348     0.09100
C1447       C  0.50158436  0.68913366  0.74842304    -0.02400
C1448       C  0.54332475  0.67767503  0.75600149    -0.00700
C1449       C  0.58470342  0.70367896  0.75331752    -0.04300
C1450       C  0.58489464  0.73665420  0.74130760     0.02700
C1451       C  0.45568692  0.74304984  0.73172435     0.09500
C1452       C  0.45844809  0.66526497  0.75219234     0.35400
C1453       C  0.62710835  0.76151447  0.73709523     0.38900
C1454       C  0.43229681  0.72024136  0.71987184    -0.04700
C1455       C  0.38722235  0.73510265  0.71551704     0.02500
C1456       C  0.36548571  0.77272748  0.72302431    -0.04300
C1457       C  0.39002567  0.79695163  0.73435896    -0.00500
C1458       C  0.43497659  0.78216695  0.73867961    -0.03100
C1459       C  0.45428638  0.68092656  0.71243598     0.36200
C1460       C  0.36829137  0.83557929  0.74223103     0.39800
C1461       C  0.36319671  0.71172177  0.70333478     0.38900
C1462       C  0.45928529  0.80605072  0.75075547     0.35800
C1463       C  0.54300775  0.78169043  0.72160957     0.36500
C1464       C  0.54355067  0.63849486  0.76634951     0.39800
N1465       N  0.34444929  0.69321650  0.69348613    -0.38300
N1466       N  0.47192623  0.64951540  0.70653890    -0.39900
N1467       N  0.35191682  0.86638266  0.74878130    -0.37600
N1468       N  0.47867734  0.82502689  0.76038897    -0.40000
N1469       N  0.42396349  0.64640419  0.75521281    -0.39800
N1470       N  0.54407248  0.60706697  0.77452879    -0.37400
N1471       N  0.66060162  0.78145104  0.73364013    -0.38500
N1472       N  0.54277984  0.80924147  0.71209198    -0.40100
C1473       C  0.21871397  0.56434288  0.73615560    -0.05100
C1474       C  0.24584032  0.54175281  0.72517473     0.09100
C1475       C  0.25418688  0.56365592  0.71127381    -0.02400
C1476       C  0.23679753  0.60913425  0.70853677    -0.00700
C1477       C  0.21246002  0.63357793  0.71999093    -0.04300
C1478       C  0.20278718  0.61014852  0.73376964     0.02700
C1479       C  0.26621646  0.49526913  0.72890348     0.09500
C1480       C  0.28192253  0.53981812  0.70001348     0.35400
C1481       C  0.17780372  0.63301618  0.74592979     0.38900
C1482       C  0.23882941  0.45489654  0.72713564    -0.04700
C1483       C  0.24974522  0.41424449  0.73534833     0.02500
C1484       C  0.28827286  0.41430297  0.74544248    -0.04300
C1485       C  0.32027338  0.45178401  0.74483808    -0.00500
C1486       C  0.30856954  0.49281693  0.73694762    -0.03100
C1487       C  0.19793912  0.45630500  0.71750747     0.36200
C1488       C  0.36610802  0.44710671  0.75160575     0.39800
C1489       C  0.22032647  0.37335658  0.73358117     0.38900
C1490       C  0.33877555  0.53336081  0.73769934     0.35800
C1491       C  0.20830524  0.54057664  0.75021293     0.36500
C1492       C  0.24622917  0.63113722  0.69419586     0.39800
N1493       N  0.19693360  0.34076064  0.73199379    -0.38300
N1494       N  0.16548571  0.45748072  0.70975999    -0.39900
N1495       N  0.40315389  0.44287510  0.75664098    -0.37600
N1496       N  0.36276409  0.56582199  0.73828383    -0.40000
N1497       N  0.30426513  0.52081835  0.69106633    -0.39800
N1498       N  0.25388703  0.64814528  0.68266446    -0.37400
N1499       N  0.15878299  0.65075670  0.75588722    -0.38500
N1500       N  0.20003488  0.52145511  0.76135613    -0.40100
C1501       C  0.25099326  0.96063751  0.76886167    -0.05100
C1502       C  0.27576144  0.99796131  0.76232834     0.09100
C1503       C  0.29326140  0.99361310  0.74756777    -0.02400
C1504       C  0.28274182  0.95384904  0.73893214    -0.00700
C1505       C  0.25532559  0.91748529  0.74509710    -0.04300
C1506       C  0.24188784  0.91987802  0.76040900     0.02700
C1507       C  0.27837693  0.04452509  0.76986299     0.09500
C1508       C  0.32124186  0.03090446  0.74114397     0.35400
C1509       C  0.21862430  0.88073512  0.76752346     0.38900
C1510       C  0.31388469  0.05507086  0.78031856    -0.04700
C1511       C  0.32250321  0.10204659  0.78446850     0.02500
C1512       C  0.29707942  0.13863798  0.77755273    -0.04300
C1513       C  0.25958856  0.12716595  0.76773597    -0.00500
C1514       C  0.24915956  0.08030278  0.76451761    -0.03100
C1515       C  0.34301248  0.01781760  0.78613626     0.36200
C1516       C  0.23320335  0.16286158  0.75986822     0.39800
C1517       C  0.36016426  0.11269616  0.79479186     0.38900
C1518       C  0.20990210  0.06876734  0.75482153     0.35800
C1519       C  0.23365708  0.96491967  0.78409986     0.36500
C1520       C  0.30180973  0.94969656  0.72387324     0.39800
N1521       N  0.39026459  0.12103439  0.80304676    -0.38300
N1522       N  0.36620793  0.98797757  0.79076226    -0.39900
N1523       N  0.21151747  0.18939007  0.75296096    -0.37600
N1524       N  0.17864678  0.05946532  0.74713455    -0.40000
N1525       N  0.34350894  0.06072009  0.73607136    -0.39800
N1526       N  0.31708583  0.94628862  0.71188514    -0.37400
N1527       N  0.20084976  0.84929870  0.77336282    -0.38500
N1528       N  0.21980138  0.96843879  0.79626021    -0.40100
C1529       C  0.81938707  0.21825345  0.60495994    -0.05100
C1530       C  0.79582579  0.24894002  0.61476793     0.09100
C1531       C  0.77461585  0.28954135  0.60889529    -0.02400
C1532       C  0.77845766  0.30033693  0.59340084    -0.00700
C1533       C  0.80429960  0.27082636  0.58364496    -0.04300
C1534       C  0.82355128  0.22895967  0.58952152     0.02700
C1535       C  0.79608565  0.23942850  0.63140468     0.09500
C1536       C  0.75005650  0.32094082  0.61894375     0.35400
C1537       C  0.84719222  0.19619137  0.57967803     0.38900
C1538       C  0.83528557  0.25225939  0.64007182    -0.04700
C1539       C  0.83821766  0.23951207  0.65537756     0.02500
C1540       C  0.80173397  0.21368263  0.66227125    -0.04300
C1541       C  0.76183270  0.20199174  0.65363727    -0.00500
C1542       C  0.75896561  0.21508616  0.63830982    -0.03100
C1543       C  0.87312438  0.27808818  0.63309448     0.36200
C1544       C  0.72329778  0.17712321  0.66054777     0.39800
C1545       C  0.88007871  0.25122648  0.66377412     0.38900
C1546       C  0.71787189  0.20343120  0.62956834     0.35800
C1547       C  0.84019924  0.17585537  0.61089190     0.36500
C1548       C  0.75732588  0.34287095  0.58772043     0.39800
N1549       N  0.91346854  0.26057571  0.67046381    -0.38300
N1550       N  0.90323615  0.29867983  0.62749795    -0.39900
N1551       N  0.69255407  0.15723769  0.66605520    -0.37600
N1552       N  0.68499218  0.19444547  0.62257725    -0.40000
N1553       N  0.73053362  0.34596303  0.62699599    -0.39800
N1554       N  0.74024670  0.37673333  0.58320217    -0.37400
N1555       N  0.86605962  0.16989119  0.57188903    -0.38500
N1556       N  0.85680132  0.14213392  0.61568749    -0.40100
C1557       C  0.97893301  0.02840686  0.68228945    -0.05100
C1558       C  0.99388799  0.00544668  0.69552536     0.09100
C1559       C  0.97143159  0.01558667  0.70926105    -0.02400
C1560       C  0.93445269  0.04819637  0.70977683    -0.00700
C1561       C  0.91941761  0.07126057  0.69654463    -0.04300
C1562       C  0.94180260  0.06114145  0.68279240     0.02700
C1563       C  0.03294193  0.97013090  0.69509406     0.09500
C1564       C  0.98667379  0.99259575  0.72295213     0.35400
C1565       C  0.92554793  0.08322147  0.66909568     0.38900
C1566       C  0.07761758  0.98153853  0.70074529    -0.04700
C1567       C  0.11337155  0.94737423  0.70135553     0.02500
C1568       C  0.10464906  0.90104783  0.69647944    -0.04300
C1569       C  0.06043926  0.89043004  0.69017774    -0.00500
C1570       C  0.02471647  0.92455549  0.68966712    -0.03100
C1571       C  0.08624018  0.02821298  0.70646853     0.36200
C1572       C  0.05187026  0.84445357  0.68391654     0.39800
C1573       C  0.15841629  0.96012338  0.70753901     0.38900
C1574       C  0.97875065  0.91228751  0.68406526     0.35800
C1575       C  0.00188391  0.01825923  0.66815319     0.36500
C1576       C  0.91345057  0.05949681  0.72416333     0.39800
N1577       N  0.19397714  0.97182483  0.71243105    -0.38300
N1578       N  0.09296900  0.06527765  0.71117719    -0.39900
N1579       N  0.04520520  0.80786476  0.67883070    -0.37600
N1580       N  0.94198385  0.90259304  0.67965214    -0.40000
N1581       N  0.99900384  0.97453341  0.73389177    -0.39800
N1582       N  0.89755431  0.06831450  0.73577117    -0.37400
N1583       N  0.91230143  0.10071151  0.65817050    -0.38500
N1584       N  0.02024213  0.00993953  0.65688441    -0.40100
C1585       C  0.69057828  0.90742733  0.76636454    -0.05100
C1586       C  0.73567506  0.92590883  0.76870606     0.09100
C1587       C  0.76826600  0.90111933  0.77748433    -0.02400
C1588       C  0.75758074  0.85579568  0.78256149    -0.00700
C1589       C  0.71403473  0.83529111  0.77894757    -0.04300
C1590       C  0.67950316  0.86233639  0.77164532     0.02700
C1591       C  0.75083653  0.96818980  0.76022179     0.09500
C1592       C  0.81370770  0.92136668  0.78056582     0.35400
C1593       C  0.63378880  0.84270753  0.76855841     0.38900
C1594       C  0.74401363  0.01325384  0.76616818    -0.04700
C1595       C  0.75583972  0.05287970  0.75754807     0.02500
C1596       C  0.77582038  0.04742175  0.74310817    -0.04300
C1597       C  0.78392740  0.00212117  0.73739524    -0.00500
C1598       C  0.77108743  0.96267563  0.74588132    -0.03100
C1599       C  0.72429401  0.01866512  0.78106800     0.36200
C1600       C  0.80589504  0.99584206  0.72284617     0.39800
C1601       C  0.74476037  0.09914591  0.76316411     0.38900
C1602       C  0.77795194  0.91618148  0.73976509     0.35800
C1603       C  0.65673732  0.93365273  0.75763333     0.36500
C1604       C  0.79204551  0.82965803  0.79108096     0.39800
N1605       N  0.73555568  0.13606167  0.76755517    -0.38300
N1606       N  0.70876203  0.02289834  0.79299361    -0.39900
N1607       N  0.82354751  0.99022687  0.71128994    -0.37600
N1608       N  0.78319425  0.87907906  0.73489775    -0.40000
N1609       N  0.84992726  0.93759023  0.78302484    -0.39800
N1610       N  0.81959271  0.80890870  0.79788035    -0.37400
N1611       N  0.59719106  0.82726599  0.76615487    -0.38500
N1612       N  0.62990593  0.95458721  0.75060438    -0.40100
C1613       C  0.73279373  0.49592810  0.73573570    -0.05100
C1614       C  0.77737530  0.47512061  0.73680976     0.09100
C1615       C  0.81378838  0.49894725  0.74417733    -0.02400
C1616       C  0.80475840  0.54153115  0.75155120    -0.00700
C1617       C  0.75890424  0.56034268  0.75176515    -0.04300
C1618       C  0.72358284  0.53870126  0.74306855     0.02700
C1619       C  0.78413294  0.42524384  0.73234302     0.09500
C1620       C  0.86006493  0.47828975  0.74481132     0.35400
C1621       C  0.67688601  0.55839459  0.74250640     0.38900
C1622       C  0.80388227  0.41315057  0.71836153    -0.04700
C1623       C  0.81174406  0.36570568  0.71470351     0.02500
C1624       C  0.79950516  0.33004991  0.72501741    -0.04300
C1625       C  0.77865396  0.34265792  0.73893278    -0.00500
C1626       C  0.77173207  0.38992105  0.74259843    -0.03100
C1627       C  0.81605261  0.44964851  0.70777975     0.36200
C1628       C  0.76469416  0.30737531  0.74977554     0.39800
C1629       C  0.83075111  0.35372510  0.70010329     0.38900
C1630       C  0.75267164  0.40235153  0.75718519     0.35800
C1631       C  0.69577284  0.47182204  0.72776765     0.36500
C1632       C  0.84285379  0.56577340  0.75898072     0.39800
N1633       N  0.84578556  0.34420844  0.68842983    -0.38300
N1634       N  0.82573653  0.47882774  0.69933834    -0.39900
N1635       N  0.75300939  0.27948022  0.75840838    -0.37600
N1636       N  0.73776444  0.41194649  0.76886424    -0.40000
N1637       N  0.89692318  0.46172082  0.74531620    -0.39800
N1638       N  0.87320295  0.58507972  0.76491343    -0.37400
N1639       N  0.63962134  0.57407016  0.74208108    -0.38500
N1640       N  0.66629188  0.45239897  0.72143965    -0.40100
C1641       C  0.09648670  0.22767477  0.77504689    -0.05100
C1642       C  0.06839013  0.25747212  0.76622146     0.09100
C1643       C  0.08402730  0.30320180  0.76301012    -0.02400
C1644       C  0.12923038  0.31744153  0.76740631    -0.00700
C1645       C  0.15964703  0.28529418  0.77448317    -0.04300
C1646       C  0.14196741  0.24152145  0.77917465     0.02700
C1647       C  0.02442531  0.23928222  0.75917302     0.09500
C1648       C  0.05442690  0.33485841  0.75455132     0.35400
C1649       C  0.17053812  0.21082667  0.78834961     0.38900
C1650       C  0.98026069  0.25394902  0.76429103    -0.04700
C1651       C  0.93918946  0.23955000  0.75676751     0.02500
C1652       C  0.94180567  0.20960864  0.74400380    -0.04300
C1653       C  0.98663355  0.19291629  0.73952936    -0.00500
C1654       C  0.02740070  0.20818658  0.74695224    -0.03100
C1655       C  0.97728914  0.28486932  0.77717194     0.36200
C1656       C  0.99198553  0.16047129  0.72712680     0.39800
C1657       C  0.89477929  0.25757612  0.76204440     0.38900
C1658       C  0.07295955  0.19285950  0.74167284     0.35800
C1659       C  0.07905405  0.18208581  0.77940779     0.36500
C1660       C  0.14468944  0.36460968  0.76416420     0.39800
N1661       N  0.85973420  0.27231832  0.76644964    -0.38300
N1662       N  0.97500058  0.30972790  0.78739697    -0.39900
N1663       N  0.99742103  0.13506927  0.71716893    -0.37600
N1664       N  0.10916311  0.18055488  0.73745329    -0.40000
N1665       N  0.03072143  0.36014644  0.74784776    -0.39800
N1666       N  0.15662392  0.40247955  0.76173519    -0.37400
N1667       N  0.19326216  0.18645569  0.79572503    -0.38500
N1668       N  0.06507481  0.14570114  0.78283937    -0.40100
C1669       C  0.58223244  0.17380658  0.73122588    -0.05100
C1670       C  0.56669431  0.21867305  0.72694724     0.09100
C1671       C  0.59413143  0.24589672  0.71708198    -0.02400
C1672       C  0.63831522  0.22950432  0.71230299    -0.00700
C1673       C  0.65488170  0.18568759  0.71728873    -0.04300
C1674       C  0.62593070  0.15720215  0.72629818     0.02700
C1675       C  0.52294532  0.23787551  0.73381640     0.09500
C1676       C  0.57765198  0.29148840  0.71237940     0.35400
C1677       C  0.64177791  0.11113841  0.73085336     0.38900
C1678       C  0.52587559  0.26698961  0.74657311    -0.04700
C1679       C  0.48512962  0.27891706  0.75462483     0.02500
C1680       C  0.44123393  0.26128856  0.75010729    -0.04300
C1681       C  0.43805026  0.23422404  0.73686237    -0.00500
C1682       C  0.47880861  0.22274276  0.72871658    -0.03100
C1683       C  0.57113834  0.28319689  0.75175473     0.36200
C1684       C  0.39320475  0.21593392  0.73207657     0.39800
C1685       C  0.48863788  0.30970377  0.76748239     0.38900
C1686       C  0.47574078  0.19382486  0.71538612     0.35800
C1687       C  0.55421265  0.14570657  0.74137409     0.36500
C1688       C  0.66807186  0.25897559  0.70313271     0.39800
N1689       N  0.49252509  0.33473881  0.77759373    -0.38300
N1690       N  0.60721528  0.29611554  0.75590037    -0.39900
N1691       N  0.35743698  0.20122311  0.72829136    -0.37600
N1692       N  0.47353761  0.17068382  0.70475549    -0.40000
N1693       N  0.56449298  0.32791715  0.70864666    -0.39800
N1694       N  0.69202201  0.28238648  0.69585270    -0.37400
N1695       N  0.65427435  0.07434354  0.73445170    -0.38500
N1696       N  0.53179670  0.12353400  0.74950800    -0.40100
loop_ 
_geom_bond_atom_site_label_1 
_geom_bond_atom_site_label_2 
_geom_bond_distance 
_geom_bond_site_symmetry_2 
_ccdc_geom_bond_type 
O1          Cr19   1.972       .  S
O1            C9   1.261       .  A
O2          Cr19   2.012       .  S
O2            C3   1.267       .  A
C3            O4   1.261       .  A
C3         C1596   1.481       .  S
O4          Cr20   1.972       .  S
O5          Cr20   2.018       .  S
O5            C6   1.266       .  A
C6            O7   1.255       .  A
C6         C1652   1.509       .  S
O7          Cr21   1.965       .  S
O8          Cr21   2.029       .  S
O8            C9   1.273       .  A
C9         C1561   1.492       .  S
O10         Cr19   2.023       .  S
O10          C18   1.266       .  A
O11         Cr19   1.997       .  S
O11          C12   1.266       .  A
C12          O13   1.264       .  A
C12        C1673   1.480       .  S
O13         Cr20   1.998       .  S
O14         Cr20   1.957       .  S
O14          C15   1.256       .  A
C15          O16   1.271       .  A
C15        C1624   1.493       .  S
O16         Cr21   2.029       .  S
O17         Cr21   1.975       .  S
O17          C18   1.256       .  A
C18        C1540   1.499       .  S
Cr19         O22   1.771       .  S
Cr20         O22   1.765       .  S
Cr21         O22   1.770       .  S
O23         Cr41   2.030       .  S
O23          C31   1.273       .  A
O24         Cr41   1.977       .  S
O24          C25   1.259       .  A
C25          O26   1.260       .  A
C25        C1505   1.488       .  S
O26         Cr42   1.997       .  S
O27         Cr42   1.988       .  S
O27          C28   1.263       .  A
C28          O29   1.264       .  A
C28        C1421   1.496       .  S
O29         Cr43   1.996       .  S
O30         Cr43   1.976       .  S
O30          C31   1.263       .  A
C31        C1568   1.500       .  S
O32         Cr41   1.998       .  S
O32          C40   1.261       .  A
O33         Cr41   2.020       .  S
O33          C34   1.268       .  A
C34          O35   1.258       .  A
C34        C1456   1.479       .  S
O35         Cr42   1.969       .  S
O36         Cr42   1.982       .  S
O36          C37   1.261       .  A
C37          O38   1.267       .  A
C37        C1477   1.496       .  S
O38         Cr43   2.001       .  S
O39         Cr43   2.005       .  S
O39          C40   1.262       .  A
C40        C1400   1.512       .  S
Cr41         O44   1.774       .  S
Cr42         O44   1.774       .  S
Cr43         O44   1.772       .  S
O45         Cr63   2.008       .  S
O45          C53   1.266       .  A
O46         Cr63   1.997       .  S
O46          C47   1.262       .  A
C47          O48   1.255       .  A
C47        C1484   1.492       .  S
O48         Cr64   1.981       .  S
O49         Cr64   1.976       .  S
O49          C50   1.264       .  A
C50          O51   1.273       .  A
C50        C1680   1.485       .  S
O51         Cr65   2.022       .  S
O52         Cr65   1.983       .  S
O52          C53   1.264       .  A
C53        C1372   1.501       .  S
O54         Cr63   1.986       .  S
O54          C62   1.262       .  A
O55         Cr63   2.021       .  S
O55          C56   1.269       .  A
C56          O57   1.260       .  A
C56        C1645   1.488       .  S
O57         Cr64   1.968       .  S
O58         Cr64   1.979       .  S
O58          C59   1.254       .  A
C59          O60   1.264       .  A
C59        C1512   1.491       .  S
O60         Cr65   2.014       .  S
O61         Cr65   2.007       .  S
O61          C62   1.266       .  A
C62        C1337   1.501       .  S
Cr63         O66   1.776       .  S
Cr64         O66   1.772       .  S
Cr65         O66   1.773       .  S
O67         Cr85   1.987       .  S
O67          C75   1.266       .  A
O68         Cr85   2.010       .  S
O68          C69   1.268       .  A
C69          O70   1.261       .  A
C69        C1617   1.491       .  S
O70         Cr86   1.978       .  S
O71         Cr86   1.990       .  S
O71          C72   1.259       .  A
C72          O73   1.260       .  A
C72        C1449   1.502       .  S
O73         Cr87   1.983       .  S
O74         Cr87   2.011       .  S
O74          C75   1.270       .  A
C75        C1365   1.510       .  S
O76         Cr85   1.998       .  S
O76          C84   1.263       .  A
O77         Cr85   2.006       .  S
O77          C78   1.265       .  A
C78          O79   1.260       .  A
C78        C1428   1.494       .  S
O79         Cr86   1.989       .  S
O80         Cr86   1.959       .  S
O80          C81   1.257       .  A
C81          O82   1.268       .  A
C81        C1589   1.481       .  S
O82         Cr87   2.018       .  S
O83         Cr87   1.993       .  S
O83          C84   1.261       .  A
C84        C1309   1.502       .  S
Cr85         O88   1.770       .  S
Cr86         O88   1.771       .  S
Cr87         O88   1.776       .  S
O89        Cr107   1.987       .  S
O89          C97   1.263       .  A
O90        Cr107   2.013       .  S
O90          C91   1.266       .  A
C91          O92   1.260       .  A
C91        C1260   1.486   1_554  S
O92        Cr108   1.984       .  S
O93        Cr108   1.992       .  S
O93          C94   1.260       .  A
C94          O95   1.257       .  A
C94        C1204   1.471       .  S
O95        Cr109   1.967       .  S
O96        Cr109   2.018       .  S
O96          C97   1.268       .  A
C97        C1169   1.505       .  S
O98        Cr107   2.019       .  S
O98         C106   1.267       .  A
O99        Cr107   1.991       .  S
O99         C100   1.263       .  A
C100        O101   1.263       .  A
C100       C1225   1.477       .  S
O101       Cr108   1.990       .  S
O102       Cr108   1.974       .  S
O102        C103   1.260       .  A
C103        O104   1.264       .  A
C103       C1281   1.482       .  S
O104       Cr109   2.017       .  S
O105       Cr109   1.978       .  S
O105        C106   1.260       .  A
C106       C1141   1.497       .  S
Cr107       O110   1.776       .  S
Cr108       O110   1.777       .  S
Cr109       O110   1.775       .  S
O111       Cr129   1.975       .  S
O111        C119   1.263       .  A
O112       Cr129   2.012       .  S
O112        C113   1.266       .  A
C113        O114   1.262       .  A
C113       C1120   1.490       .  S
O114       Cr130   1.983       .  S
O115       Cr130   2.017       .  S
O115        C116   1.265       .  A
C116        O117   1.255       .  A
C116       C1057   1.491       .  S
O117       Cr131   1.964       .  S
O118       Cr131   2.035       .  S
O118        C119   1.274       .  A
C119       C1176   1.494       .  S
O120       Cr129   2.014       .  S
O120        C128   1.264       .  A
O121       Cr129   1.996       .  S
O121        C122   1.266       .  A
C122        O123   1.267       .  A
C122       C1029   1.481       .  S
O123       Cr130   2.005       .  S
O124       Cr130   1.961       .  S
O124        C125   1.257       .  A
C125        O126   1.272       .  A
C125       C1092   1.489       .  S
O126       Cr131   2.032       .  S
O127       Cr131   1.979       .  S
O127        C128   1.256       .  A
C128       C1001   1.498       .  S
Cr129       O132   1.772       .  S
Cr130       O132   1.772       .  S
Cr131       O132   1.772       .  S
O133       Cr151   2.024       .  S
O133        C141   1.270       .  A
O134       Cr151   1.979       .  S
O134        C135   1.258       .  A
C135        O136   1.262       .  A
C135       C1288   1.500       .  S
O136       Cr152   2.004       .  S
O137       Cr152   1.986       .  S
O137        C138   1.263       .  A
C138        O139   1.267       .  A
C138       C1036   1.496       .  S
O139       Cr153   2.014       .  S
O140       Cr153   1.970       .  S
O140        C141   1.260       .  A
C141        C973   1.493       .  S
O142       Cr151   1.975       .  S
O142        C150   1.257       .  A
O143       Cr151   2.020       .  S
O143        C144   1.271       .  A
C144        O145   1.262       .  A
C144       C1064   1.508       .  S
O145       Cr152   1.970       .  S
O146       Cr152   2.004       .  S
O146        C147   1.266       .  A
C147        O148   1.263       .  A
C147       C1253   1.492       .  S
O148       Cr153   1.992       .  S
O149       Cr153   2.017       .  S
O149        C150   1.265       .  A
C150       C1316   1.506       .  S
Cr151       O154   1.777       .  S
Cr152       O154   1.773       .  S
Cr153       O154   1.777       .  S
O155       Cr173   1.982       .  S
O155        C163   1.265       .  A
O156       Cr173   2.009       .  S
O156        C157   1.266       .  A
C157        O158   1.262       .  A
C157       C1085   1.486       .  S
O158       Cr174   1.991       .  S
O159       Cr174   1.984       .  S
O159        C160   1.257       .  A
C160        O161   1.258       .  A
C160       C1232   1.478       .  S
O161       Cr175   1.976       .  S
O162       Cr175   2.018       .  S
O162        C163   1.270       .  A
C163        C980   1.503       .  S
O164       Cr173   2.002       .  S
O164        C172   1.263       .  A
O165       Cr173   1.996       .  S
O165        C166   1.265       .  A
C166        O167   1.261       .  A
C166       C1197   1.484       .  S
O167       Cr174   1.988       .  S
O168       Cr174   1.961       .  S
O168        C169   1.257       .  A
C169        O170   1.270       .  A
C169       C1113   1.486       .  S
O170       Cr175   2.032       .  S
O171       Cr175   1.987       .  S
O171        C172   1.261       .  A
C172       C1344   1.489       .  S
Cr173       O176   1.768       .  S
Cr174       O176   1.768       .  S
Cr175       O176   1.776       .  S
O177       Cr195   2.029       .  S
O177        C185   1.274       .  A
O178       Cr195   1.983       .  S
O178        C179   1.259       .  A
C179        O180   1.257       .  A
C179        C945   1.484       .  S
O180       Cr196   1.989       .  S
O181       Cr196   1.977       .  S
O181        C182   1.261       .  A
C182        O183   1.268       .  A
C182        C868   1.476       .  S
O183       Cr197   2.008       .  S
O184       Cr197   1.963       .  S
O184        C185   1.260       .  A
C185        C840   1.483       .  S
O186       Cr195   1.994       .  S
O186        C194   1.259       .  A
O187       Cr195   2.033       .  S
O187        C188   1.274       .  A
C188        O189   1.257       .  A
C188        C889   1.513       .  S
O189       Cr196   1.952       .  S
O190       Cr196   1.988       .  S
O190        C191   1.259       .  A
C191        O192   1.263       .  A
C191        C917   1.480       .  S
O192       Cr197   2.001       .  S
O193       Cr197   2.000       .  S
O193        C194   1.261       .  A
C194       C1533   1.502       .  S
Cr195       O198   1.775       .  S
Cr196       O198   1.770       .  S
Cr197       O198   1.772       .  S
O199       Cr217   2.015       .  S
O199        C207   1.270       .  A
O200       Cr217   1.978       .  S
O200        C201   1.259       .  A
C201        O202   1.259       .  A
C201        C924   1.500       .  S
O202       Cr218   1.991       .  S
O203       Cr218   1.975       .  S
O203        C204   1.260       .  A
C204        O205   1.268       .  A
C204        C777   1.477       .  S
O205       Cr219   2.012       .  S
O206       Cr219   1.973       .  S
O206        C207   1.262       .  A
C207        C756   1.513       .  S
O208       Cr217   1.970       .  S
O208        C216   1.255       .  A
O209       Cr217   2.019       .  S
O209        C210   1.268       .  A
C210        O211   1.258       .  A
C210        C805   1.480       .  S
O211       Cr218   1.958       .  S
O212       Cr218   1.993       .  S
O212        C213   1.263       .  A
C213        O214   1.266       .  A
C213        C952   1.490       .  S
O214       Cr219   2.001       .  S
O215       Cr219   2.012       .  S
O215        C216   1.264       .  A
C216        C721   1.493       .  S
Cr217       O220   1.769       .  S
Cr218       O220   1.760       .  S
Cr219       O220   1.771       .  S
O221       Cr239   1.962       .  S
O221        C229   1.261       .  A
O222       Cr239   2.001       .  S
O222        C223   1.262       .  A
C223        O224   1.258       .  A
C223        C693   1.484       .  S
O224       Cr240   1.983       .  S
O225       Cr240   2.000       .  S
O225        C226   1.262       .  A
C226        O227   1.259       .  A
C226        C896   1.485       .  S
O227       Cr241   1.975       .  S
O228       Cr241   2.026       .  S
O228        C229   1.272       .  A
C229        C749   1.480       .  S
O230       Cr239   1.998       .  S
O230        C238   1.260       .  A
O231       Cr239   1.978       .  S
O231        C232   1.262       .  A
C232        O233   1.268       .  A
C232        C861   1.476       .  S
O233       Cr240   2.005       .  S
O234       Cr240   1.964       .  S
O234        C235   1.258       .  A
C235        O236   1.269       .  A
C235        C665   1.483       .  S
O236       Cr241   2.020       .  S
O237       Cr241   1.990       .  S
O237        C238   1.259       .  A
C238        C637   1.489       .  S
Cr239       O242   1.773       .  S
Cr240       O242   1.773       .  S
Cr241       O242   1.776       .  S
O243       Cr261   2.030       .  S
O243        C251   1.274       .  A
O244       Cr261   1.978       .  S
O244        C245   1.258       .  A
C245        O246   1.263       .  A
C245        C672   1.486       .  S
O246       Cr262   2.013       .  S
O247       Cr262   1.977       .  S
O247        C248   1.260       .  A
C248        O249   1.266       .  A
C248        C812   1.481       .  S
O249       Cr263   2.006       .  S
O250       Cr263   1.968       .  S
O250        C251   1.263       .  A
C251        C833   1.496       .  S
O252       Cr261   1.996       .  S
O252        C260   1.261       .  A
O253       Cr261   2.028       .  S
O253        C254   1.271       .  A
C254        O255   1.255       .  A
C254        C784   1.483       .  S
O255       Cr262   1.953       .  S
O256       Cr262   2.002       .  S
O256        C257   1.264       .  A
C257        O258   1.262       .  A
C257        C700   1.479       .  S
O258       Cr263   1.987       .  S
O259       Cr263   2.001       .  S
O259        C260   1.262       .  A
C260       C1393   1.500       .  S
Cr261       O264   1.772       .  S
Cr262       O264   1.773       .  S
Cr263       O264   1.767       .  S
O265       Cr283   1.960       .  S
O265        C273   1.258       .  A
O266       Cr283   1.999       .  S
O266        C267   1.263       .  A
C267        O268   1.261       .  A
C267        C581   1.484       .  S
O268       Cr284   1.989       .  S
O269       Cr284   2.004       .  S
O269        C270   1.263       .  A
C270        O271   1.258       .  A
C270        C525   1.493       .  S
O271       Cr285   1.974       .  S
O272       Cr285   2.026       .  S
O272        C273   1.270       .  A
C273        C504   1.481       .  S
O274       Cr283   1.998       .  S
O274        C282   1.262       .  A
O275       Cr283   1.982       .  S
O275        C276   1.263       .  A
C276        O277   1.269       .  A
C276        C553   1.483       .  S
O277       Cr284   2.004       .  S
O278       Cr284   1.969       .  S
O278        C279   1.261       .  A
C279        O280   1.271       .  A
C279        C609   1.505       .  S
O280       Cr285   2.024       .  S
O281       Cr285   1.983       .  S
O281        C282   1.259       .  A
C282        C728   1.490       .  S
Cr283       O286   1.770       .  S
Cr284       O286   1.768       .  S
Cr285       O286   1.770       .  S
O287       Cr305   1.975       .  S
O287        C295   1.264       .  A
O288       Cr305   2.029       .  S
O288        C289   1.271       .  A
C289        O290   1.256       .  A
C289        C441   1.485       .  S
O290       Cr306   1.969       .  S
O291       Cr306   2.023       .  S
O291        C292   1.268       .  A
C292        O293   1.258       .  A
C292        C560   1.490       .  S
O293       Cr307   1.971       .  S
O294       Cr307   2.029       .  S
O294        C295   1.273       .  A
C295        C420   1.504       .  S
O296       Cr305   2.026       .  S
O296        C304   1.268       .  A
O297       Cr305   1.985       .  S
O297        C298   1.261       .  A
C298        O299   1.269       .  A
C298        C532   1.479       .  S
O299       Cr306   2.012       .  S
O300       Cr306   1.939       .  S
O300        C301   1.250       .  A
C301        O302   1.269       .  A
C301        C476   1.479       .  S
O302       Cr307   2.029       .  S
O303       Cr307   1.972       .  S
O303        C304   1.257       .  A
C304       C1008   1.498       .  S
Cr305       O308   1.768       .  S
Cr306       O308   1.762       .  S
Cr307       O308   1.766       .  S
O309       Cr327   2.003       .  S
O309        C317   1.265       .  A
O310       Cr327   1.981       .  S
O310        C311   1.258       .  A
C311        O312   1.257       .  A
C311        C469   1.479       .  S
O312       Cr328   1.992       .  S
O313       Cr328   1.983       .  S
O313        C314   1.265       .  A
C314        O315   1.271       .  A
C314        C364   1.480       .  S
O315       Cr329   2.020       .  S
O316       Cr329   1.987       .  S
O316        C317   1.264       .  A
C317        C497   1.505       .  S
O318       Cr327   1.966       .  S
O318        C326   1.256       .  A
O319       Cr327   2.009       .  S
O319        C320   1.268       .  A
C320        O321   1.264       .  A
C320        C385   1.493       .  S
O321       Cr328   1.978       .  S
O322       Cr328   1.976       .  S
O322        C323   1.254       .  A
C323        O324   1.266       .  A
C323        C448   1.494       .  S
O324       Cr329   2.015       .  S
O325       Cr329   2.020       .  S
O325        C326   1.267       .  A
C326        C644   1.488       .  S
Cr327       O330   1.766       .  S
Cr328       O330   1.765       .  S
Cr329       O330   1.768       .  S
O331       Cr349   2.025       .  S
O331        C339   1.272       .  A
O332       Cr349   1.971       .  S
O332        C333   1.257       .  A
C333        O334   1.264       .  A
C333        C616   1.495       .  S
O334       Cr350   2.012       .  S
O335       Cr350   1.981       .  S
O335        C336   1.260       .  A
C336        O337   1.262       .  A
C336        C392   1.484       .  S
O337       Cr351   1.999       .  S
O338       Cr351   1.973       .  S
O338        C339   1.262       .  A
C339        C413   1.490       .  S
O340       Cr349   1.991       .  S
O340        C348   1.260       .  A
O341       Cr349   2.024       .  S
O341        C342   1.270       .  A
C342        O343   1.257       .  A
C342        C357   1.480       .  S
O343       Cr350   1.957       .  S
O344       Cr350   2.006       .  S
O344        C345   1.268       .  A
C345        O346   1.264       .  A
C345        C588   1.477       .  S
O346       Cr351   1.983       .  S
O347       Cr351   2.006       .  S
O347        C348   1.263       .  A
C348       C1148   1.494       .  S
Cr349       O352   1.772       .  S
Cr350       O352   1.770       .  S
Cr351       O352   1.769       .  S
C353        C354   1.410       .  A
C353        C358   1.405       .  A
C353        C371   1.453       .  S
C354        C359   1.496       .  S
C354        C355   1.413       .  A
C355        C356   1.415       .  A
C355        C360   1.449       .  S
C356        C357   1.411       .  A
C356        C372   1.450       .  S
C357        C358   1.415       .  A
C358        C361   1.453       .  S
C359        C362   1.412   1_655  A
C359        C366   1.411   1_655  A
C360        N377   1.157       .  T
C361        N379   1.157       .  T
C362        C363   1.410       .  A
C362        C367   1.452   1_455  S
C363        C364   1.410       .  A
C363        C369   1.448       .  S
C364        C365   1.414       .  A
C365        C366   1.411       .  A
C365        C368   1.451       .  S
C366        C370   1.451       .  S
C367        N374   1.157       .  T
C368        N375   1.157       .  T
C369        N373   1.156       .  T
C370        N376   1.157       .  T
C371        N380   1.157       .  T
C372        N378   1.157       .  T
C381        C382   1.410       .  A
C381        C386   1.410       .  A
C381        C399   1.451       .  S
C382        C387   1.491       .  S
C382        C383   1.408       .  A
C383        C384   1.407       .  A
C383        C388   1.451       .  S
C384        C385   1.416       .  A
C384        C400   1.450       .  S
C385        C386   1.418       .  A
C386        C389   1.450       .  S
C387        C390   1.410       .  A
C387        C394   1.410       .  A
C388        N405   1.157       .  T
C389        N407   1.158       .  T
C390        C391   1.405       .  A
C390        C395   1.453       .  S
C391        C392   1.415       .  A
C391        C397   1.452       .  S
C392        C393   1.416       .  A
C393        C394   1.412       .  A
C393        C396   1.451       .  S
C394        C398   1.450       .  S
C395        N402   1.157       .  T
C396        N403   1.157       .  T
C397        N401   1.157       .  T
C398        N404   1.157       .  T
C399        N408   1.157       .  T
C400        N406   1.157       .  T
C409        C410   1.413       .  A
C409        C414   1.416       .  A
C409        C427   1.449       .  S
C410        C415   1.502       .  S
C410        C411   1.410       .  A
C411        C412   1.411       .  A
C411        C416   1.452       .  S
C412        C413   1.417       .  A
C412        C428   1.451       .  S
C413        C414   1.412       .  A
C414        C417   1.449       .  S
C415        C418   1.409       .  A
C415        C422   1.410       .  A
C416        N433   1.157       .  T
C417        N435   1.157       .  T
C418        C419   1.412       .  A
C418        C423   1.451       .  S
C419        C420   1.421       .  A
C419        C425   1.452       .  S
C420        C421   1.421       .  A
C421        C422   1.416       .  A
C421        C424   1.451       .  S
C422        C426   1.450       .  S
C423        N430   1.157       .  T
C424        N431   1.158       .  T
C425        N429   1.157       .  T
C426        N432   1.157       .  T
C427        N436   1.157       .  T
C428        N434   1.157       .  T
C437        C438   1.412       .  A
C437        C442   1.411       .  A
C437        C455   1.451       .  S
C438        C443   1.495       .  S
C438        C439   1.410       .  A
C439        C440   1.407       .  A
C439        C444   1.452       .  S
C440        C441   1.412       .  A
C440        C456   1.447       .  S
C441        C442   1.413       .  A
C442        C445   1.447       .  S
C443        C446   1.413       .  A
C443        C450   1.407       .  A
C444        N461   1.157       .  T
C445        N463   1.156       .  T
C446        C447   1.415       .  A
C446        C451   1.450       .  S
C447        C448   1.416       .  A
C447        C453   1.449       .  S
C448        C449   1.426       .  A
C449        C450   1.402       .  A
C449        C452   1.455       .  S
C450        C454   1.456       .  S
C451        N458   1.157       .  T
C452        N459   1.158       .  T
C453        N457   1.157       .  T
C454        N460   1.157       .  T
C455        N464   1.157       .  T
C456        N462   1.156       .  T
C465        C466   1.409   1_545  A
C465        C470   1.408       .  A
C465        C483   1.451       .  S
C466        C471   1.490       .  S
C466        C467   1.411   1_565  A
C467        C468   1.406       .  A
C467        C472   1.452   1_545  S
C468        C469   1.411       .  A
C468        C484   1.448       .  S
C469        C470   1.416       .  A
C470        C473   1.450       .  S
C471        C474   1.409       .  A
C471        C478   1.412       .  A
C472        N489   1.157       .  T
C473        N491   1.157       .  T
C474        C475   1.401       .  A
C474        C479   1.455       .  S
C475        C476   1.418       .  A
C475        C481   1.455       .  S
C476        C477   1.411       .  A
C477        C478   1.412       .  A
C477        C480   1.450       .  S
C478        C482   1.449       .  S
C479        N486   1.157       .  T
C480        N487   1.157       .  T
C481        N485   1.158       .  T
C482        N488   1.157   1_565  T
C483        N492   1.157       .  T
C484        N490   1.155       .  T
C493        C494   1.409       .  A
C493        C498   1.413       .  A
C493        C511   1.451   1_455  S
C494        C499   1.498   1_445  S
C494        C495   1.407       .  A
C495        C496   1.411       .  A
C495        C500   1.452   1_545  S
C496        C497   1.425       .  A
C496        C512   1.452       .  S
C497        C498   1.422       .  A
C498        C501   1.451       .  S
C499        C502   1.411       .  A
C499        C506   1.412       .  A
C500        N517   1.157       .  T
C501        N519   1.158       .  T
C502        C503   1.408       .  A
C502        C507   1.451   1_655  S
C503        C504   1.414       .  A
C503        C509   1.453       .  S
C504        C505   1.412       .  A
C505        C506   1.414       .  A
C505        C508   1.450       .  S
C506        C510   1.449       .  S
C507        N514   1.157   1_565  T
C508        N515   1.157       .  T
C509        N513   1.157       .  T
C510        N516   1.157       .  T
C511        N520   1.157       .  T
C512        N518   1.157       .  T
C521        C522   1.408   1_655  A
C521        C526   1.412       .  A
C521        C539   1.450       .  S
C522        C527   1.493       .  S
C522        C523   1.409       .  A
C523        C524   1.409   1_455  A
C523        C528   1.453       .  S
C524        C525   1.420       .  A
C524        C540   1.452       .  S
C525        C526   1.419       .  A
C526        C529   1.451       .  S
C527        C530   1.408       .  A
C527        C534   1.412       .  A
C528        N545   1.157       .  T
C529        N547   1.157       .  T
C530        C531   1.406       .  A
C530        C535   1.451       .  S
C531        C532   1.410       .  A
C531        C537   1.447       .  S
C532        C533   1.410       .  A
C533        C534   1.413       .  A
C533        C536   1.450       .  S
C534        C538   1.449       .  S
C535        N542   1.157       .  T
C536        N543   1.157       .  T
C537        N541   1.157       .  T
C538        N544   1.157       .  T
C539        N548   1.157       .  T
C540        N546   1.158       .  T
C549        C550   1.413       .  A
C549        C554   1.405       .  A
C549        C567   1.452       .  S
C550        C555   1.497       .  S
C550        C551   1.412       .  A
C551        C552   1.414       .  A
C551        C556   1.450       .  S
C552        C553   1.414       .  A
C552        C568   1.451       .  S
C553        C554   1.412       .  A
C554        C557   1.452       .  S
C555        C558   1.412       .  A
C555        C562   1.408       .  A
C556        N573   1.157       .  T
C557        N575   1.157       .  T
C558        C559   1.412       .  A
C558        C563   1.450       .  S
C559        C560   1.416       .  A
C559        C565   1.450       .  S
C560        C561   1.417       .  A
C561        C562   1.409       .  A
C561        C564   1.446       .  S
C562        C566   1.453       .  S
C563        N570   1.157       .  T
C564        N571   1.155       .  T
C565        N569   1.157       .  T
C566        N572   1.157       .  T
C567        N576   1.157       .  T
C568        N574   1.157       .  T
C577        C578   1.409       .  A
C577        C582   1.407   1_545  A
C577        C595   1.452       .  S
C578        C583   1.493       .  S
C578        C579   1.409   1_545  A
C579        C580   1.413       .  A
C579        C584   1.449       .  S
C580        C581   1.415       .  A
C580        C596   1.450       .  S
C581        C582   1.415       .  A
C582        C585   1.451       .  S
C583        C586   1.410       .  A
C583        C590   1.412       .  A
C584        N601   1.157       .  T
C585        N603   1.157       .  T
C586        C587   1.412       .  A
C586        C591   1.449       .  S
C587        C588   1.413       .  A
C587        C593   1.451       .  S
C588        C589   1.411       .  A
C589        C590   1.407       .  A
C589        C592   1.452       .  S
C590        C594   1.451       .  S
C591        N598   1.157       .  T
C592        N599   1.157       .  T
C593        N597   1.157       .  T
C594        N600   1.157       .  T
C595        N604   1.157       .  T
C596        N602   1.157       .  T
C605        C606   1.410       .  A
C605        C610   1.415       .  A
C605        C623   1.451       .  S
C606        C611   1.500       .  S
C606        C607   1.407       .  A
C607        C608   1.411       .  A
C607        C612   1.453       .  S
C608        C609   1.422       .  A
C608        C624   1.447       .  S
C609        C610   1.422       .  A
C610        C613   1.450       .  S
C611        C614   1.411       .  A
C611        C618   1.410       .  A
C612        N629   1.157       .  T
C613        N631   1.157       .  T
C614        C615   1.415       .  A
C614        C619   1.450       .  S
C615        C616   1.418       .  A
C615        C621   1.450       .  S
C616        C617   1.420       .  A
C617        C618   1.409       .  A
C617        C620   1.452       .  S
C618        C622   1.452       .  S
C619        N626   1.157       .  T
C620        N627   1.158       .  T
C621        N625   1.157       .  T
C622        N628   1.157       .  T
C623        N632   1.157       .  T
C624        N630   1.155       .  T
C633        C634   1.412       .  A
C633        C638   1.414       .  A
C633        C651   1.450       .  S
C634        C639   1.501       .  S
C634        C635   1.411       .  A
C635        C636   1.411       .  A
C635        C640   1.452       .  S
C636        C637   1.415       .  A
C636        C652   1.451       .  S
C637        C638   1.415       .  A
C638        C641   1.450       .  S
C639        C642   1.411       .  A
C639        C646   1.412       .  A
C640        N657   1.157       .  T
C641        N659   1.157       .  T
C642        C643   1.410       .  A
C642        C647   1.451       .  S
C643        C644   1.416       .  A
C643        C649   1.452       .  S
C644        C645   1.412       .  A
C645        C646   1.414       .  A
C645        C648   1.448       .  S
C646        C650   1.449       .  S
C647        N654   1.157       .  T
C648        N655   1.156       .  T
C649        N653   1.158       .  T
C650        N656   1.157       .  T
C651        N660   1.157       .  T
C652        N658   1.157       .  T
C661        C662   1.410       .  A
C661        C666   1.407       .  A
C661        C679   1.452       .  S
C662        C667   1.498       .  S
C662        C663   1.412       .  A
C663        C664   1.416       .  A
C663        C668   1.449       .  S
C664        C665   1.412       .  A
C664        C680   1.449       .  S
C665        C666   1.414       .  A
C666        C669   1.452       .  S
C667        C670   1.410       .  A
C667        C674   1.412       .  A
C668        N685   1.157       .  T
C669        N687   1.157       .  T
C670        C671   1.412       .  A
C670        C675   1.451       .  S
C671        C672   1.415       .  A
C671        C677   1.449       .  S
C672        C673   1.413       .  A
C673        C674   1.412       .  A
C673        C676   1.451       .  S
C674        C678   1.450       .  S
C675        N682   1.157       .  T
C676        N683   1.157       .  T
C677        N681   1.157       .  T
C678        N684   1.157       .  T
C679        N688   1.157       .  T
C680        N686   1.157       .  T
C689        C690   1.411       .  A
C689        C694   1.407   1_565  A
C689        C707   1.452       .  S
C690        C695   1.495       .  S
C690        C691   1.410   1_565  A
C691        C692   1.413       .  A
C691        C696   1.449       .  S
C692        C693   1.416       .  A
C692        C708   1.450       .  S
C693        C694   1.414       .  A
C694        C697   1.452       .  S
C695        C698   1.411       .  A
C695        C702   1.412       .  A
C696        N713   1.157       .  T
C697        N715   1.157   1_545  T
C698        C699   1.412       .  A
C698        C703   1.450       .  S
C699        C700   1.413       .  A
C699        C705   1.451       .  S
C700        C701   1.412       .  A
C701        C702   1.408       .  A
C701        C704   1.452       .  S
C702        C706   1.451       .  S
C703        N710   1.157       .  T
C704        N711   1.157       .  T
C705        N709   1.158       .  T
C706        N712   1.157       .  T
C707        N716   1.157       .  T
C708        N714   1.157       .  T
C717        C718   1.409       .  A
C717        C722   1.413       .  A
C717        C735   1.450       .  S
C718        C723   1.496       .  S
C718        C719   1.409       .  A
C719        C720   1.409       .  A
C719        C724   1.452       .  S
C720        C721   1.420       .  A
C720        C736   1.452       .  S
C721        C722   1.417       .  A
C722        C725   1.450       .  S
C723        C726   1.409       .  A
C723        C730   1.410       .  A
C724        N741   1.157       .  T
C725        N743   1.157       .  T
C726        C727   1.409       .  A
C726        C731   1.452       .  S
C727        C728   1.418       .  A
C727        C733   1.452       .  S
C728        C729   1.418       .  A
C729        C730   1.412       .  A
C729        C732   1.451       .  S
C730        C734   1.451       .  S
C731        N738   1.157       .  T
C732        N739   1.157       .  T
C733        N737   1.157       .  T
C734        N740   1.157       .  T
C735        N744   1.157       .  T
C736        N742   1.157       .  T
C745        C746   1.412       .  A
C745        C750   1.408       .  A
C745        C763   1.452       .  S
C746        C751   1.499   1_545  S
C746        C747   1.414       .  A
C747        C748   1.414       .  A
C747        C752   1.450       .  S
C748        C749   1.411       .  A
C748        C764   1.450       .  S
C749        C750   1.413       .  A
C750        C753   1.452       .  S
C751        C754   1.408       .  A
C751        C758   1.407       .  A
C752        N769   1.157       .  T
C753        N771   1.157       .  T
C754        C755   1.412       .  A
C754        C759   1.453       .  S
C755        C756   1.428       .  A
C755        C761   1.452       .  S
C756        C757   1.427       .  A
C757        C758   1.412       .  A
C757        C760   1.451       .  S
C758        C762   1.452   1_565  S
C759        N766   1.157       .  T
C760        N767   1.157       .  T
C761        N765   1.158       .  T
C762        N768   1.157       .  T
C763        N772   1.157   1_545  T
C764        N770   1.157       .  T
C773        C774   1.413       .  A
C773        C778   1.411       .  A
C773        C791   1.450       .  S
C774        C779   1.494       .  S
C774        C775   1.411       .  A
C775        C776   1.408       .  A
C775        C780   1.451       .  S
C776        C777   1.412       .  A
C776        C792   1.452       .  S
C777        C778   1.412       .  A
C778        C781   1.451       .  S
C779        C782   1.409       .  A
C779        C786   1.412       .  A
C780        N797   1.157       .  T
C781        N799   1.157       .  T
C782        C783   1.405       .  A
C782        C787   1.453       .  S
C783        C784   1.417       .  A
C783        C789   1.453       .  S
C784        C785   1.412       .  A
C785        C786   1.414       .  A
C785        C788   1.450       .  S
C786        C790   1.449       .  S
C787        N794   1.157       .  T
C788        N795   1.157       .  T
C789        N793   1.157       .  T
C790        N796   1.157       .  T
C791        N800   1.157       .  T
C792        N798   1.157       .  T
C801        C802   1.412       .  A
C801        C806   1.411       .  A
C801        C819   1.450       .  S
C802        C807   1.492       .  S
C802        C803   1.409       .  A
C803        C804   1.407       .  A
C803        C808   1.450       .  S
C804        C805   1.413       .  A
C804        C820   1.452       .  S
C805        C806   1.412       .  A
C806        C809   1.450       .  S
C807        C810   1.411       .  A
C807        C814   1.409   1_655  A
C808        N825   1.157       .  T
C809        N827   1.157       .  T
C810        C811   1.407   1_655  A
C810        C815   1.451       .  S
C811        C812   1.412       .  A
C811        C817   1.450       .  S
C812        C813   1.415       .  A
C813        C814   1.411       .  A
C813        C816   1.451       .  S
C814        C818   1.450       .  S
C815        N822   1.157       .  T
C816        N823   1.157       .  T
C817        N821   1.157       .  T
C818        N824   1.157       .  T
C819        N828   1.157       .  T
C820        N826   1.157       .  T
C829        C830   1.412       .  A
C829        C834   1.415       .  A
C829        C847   1.451       .  S
C830        C835   1.501       .  S
C830        C831   1.409       .  A
C831        C832   1.411       .  A
C831        C836   1.450   1_455  S
C832        C833   1.417       .  A
C832        C848   1.451       .  S
C833        C834   1.417       .  A
C834        C837   1.450       .  S
C835        C838   1.412   1_455  A
C835        C842   1.412   1_455  A
C836        N853   1.157       .  T
C837        N855   1.157       .  T
C838        C839   1.415       .  A
C838        C843   1.449   1_655  S
C839        C840   1.412       .  A
C839        C845   1.450       .  S
C840        C841   1.413       .  A
C841        C842   1.411       .  A
C841        C844   1.451       .  S
C842        C846   1.452       .  S
C843        N850   1.157       .  T
C844        N851   1.157       .  T
C845        N849   1.157       .  T
C846        N852   1.157       .  T
C847        N856   1.157       .  T
C848        N854   1.157       .  T
C857        C858   1.411       .  A
C857        C862   1.406       .  A
C857        C875   1.451       .  S
C858        C863   1.491       .  S
C858        C859   1.410       .  A
C859        C860   1.411       .  A
C859        C864   1.450       .  S
C860        C861   1.413       .  A
C860        C876   1.450       .  S
C861        C862   1.411       .  A
C862        C865   1.452       .  S
C863        C866   1.411       .  A
C863        C870   1.409   1_455  A
C864        N881   1.157       .  T
C865        N883   1.157       .  T
C866        C867   1.408   1_455  A
C866        C871   1.452       .  S
C867        C868   1.411       .  A
C867        C873   1.451   1_655  S
C868        C869   1.413       .  A
C869        C870   1.410       .  A
C869        C872   1.451       .  S
C870        C874   1.449       .  S
C871        N878   1.157       .  T
C872        N879   1.157       .  T
C873        N877   1.157       .  T
C874        N880   1.157       .  T
C875        N884   1.157       .  T
C876        N882   1.157       .  T
C885        C886   1.404       .  A
C885        C890   1.408       .  A
C885        C903   1.454       .  S
C886        C891   1.495       .  S
C886        C887   1.407       .  A
C887        C888   1.416       .  A
C887        C892   1.450       .  S
C888        C889   1.425       .  A
C888        C904   1.450       .  S
C889        C890   1.431       .  A
C890        C893   1.452       .  S
C891        C894   1.410       .  A
C891        C898   1.410       .  A
C892        N909   1.157       .  T
C893        N911   1.157       .  T
C894        C895   1.414       .  A
C894        C899   1.449       .  S
C895        C896   1.415       .  A
C895        C901   1.450       .  S
C896        C897   1.415       .  A
C897        C898   1.408       .  A
C897        C900   1.452       .  S
C898        C902   1.452       .  S
C899        N906   1.157       .  T
C900        N907   1.157       .  T
C901        N905   1.157       .  T
C902        N908   1.157       .  T
C903        N912   1.157       .  T
C904        N910   1.158       .  T
C913        C914   1.411       .  A
C913        C918   1.407       .  A
C913        C931   1.452       .  S
C914        C919   1.496       .  S
C914        C915   1.412       .  A
C915        C916   1.414       .  A
C915        C920   1.449       .  S
C916        C917   1.413       .  A
C916        C932   1.450       .  S
C917        C918   1.413       .  A
C918        C921   1.452       .  S
C919        C922   1.407   1_545  A
C919        C926   1.411       .  A
C920        N937   1.157       .  T
C921        N939   1.157       .  T
C922        C923   1.410       .  A
C922        C927   1.453       .  S
C923        C924   1.426       .  A
C923        C929   1.452       .  S
C924        C925   1.419       .  A
C925        C926   1.411   1_565  A
C925        C928   1.453       .  S
C926        C930   1.449       .  S
C927        N934   1.157       .  T
C928        N935   1.157       .  T
C929        N933   1.158       .  T
C930        N936   1.157       .  T
C931        N940   1.157       .  T
C932        N938   1.157       .  T
C941        C942   1.408       .  A
C941        C946   1.412       .  A
C941        C959   1.450       .  S
C942        C947   1.493       .  S
C942        C943   1.411       .  A
C943        C944   1.408       .  A
C943        C948   1.451       .  S
C944        C945   1.413       .  A
C944        C960   1.451       .  S
C945        C946   1.417       .  A
C946        C949   1.450       .  S
C947        C950   1.410       .  A
C947        C954   1.406       .  A
C948        N965   1.157       .  T
C949        N967   1.157       .  T
C950        C951   1.416       .  A
C950        C955   1.449       .  S
C951        C952   1.417       .  A
C951        C957   1.449       .  S
C952        C953   1.421       .  A
C953        C954   1.404       .  A
C953        C956   1.451       .  S
C954        C958   1.454       .  S
C955        N962   1.157       .  T
C956        N963   1.157       .  T
C957        N961   1.157       .  T
C958        N964   1.157       .  T
C959        N968   1.157       .  T
C960        N966   1.157       .  T
C969        C970   1.409       .  A
C969        C974   1.409   1_455  A
C969        C987   1.452       .  S
C970        C975   1.501       .  S
C970        C971   1.413   1_455  A
C971        C972   1.416       .  A
C971        C976   1.450       .  S
C972        C973   1.415       .  A
C972        C988   1.450       .  S
C973        C974   1.417       .  A
C974        C977   1.451       .  S
C975        C978   1.408       .  A
C975        C982   1.410       .  A
C976        N993   1.157       .  T
C977        N995   1.157       .  T
C978        C979   1.412       .  A
C978        C983   1.452   1_455  S
C979        C980   1.421       .  A
C979        C985   1.448       .  S
C980        C981   1.420       .  A
C981        C982   1.415       .  A
C981        C984   1.451       .  S
C982        C986   1.450       .  S
C983        N990   1.157       .  T
C984        N991   1.157       .  T
C985        N989   1.156       .  T
C986        N992   1.157       .  T
C987        N996   1.157       .  T
C988        N994   1.157       .  T
C997        C998   1.412       .  A
C997       C1002   1.413       .  A
C997       C1015   1.452       .  S
C998       C1003   1.504       .  S
C998        C999   1.411       .  A
C999       C1000   1.415       .  A
C999       C1004   1.450       .  S
C1000      C1001   1.417       .  A
C1000      C1016   1.451       .  S
C1001      C1002   1.419       .  A
C1002      C1005   1.451       .  S
C1003      C1006   1.411       .  A
C1003      C1010   1.412       .  A
C1004      N1021   1.157       .  T
C1005      N1023   1.157       .  T
C1006      C1007   1.411       .  A
C1006      C1011   1.452       .  S
C1007      C1008   1.420       .  A
C1007      C1013   1.452       .  S
C1008      C1009   1.418       .  A
C1009      C1010   1.416       .  A
C1009      C1012   1.451       .  S
C1010      C1014   1.450       .  S
C1011      N1018   1.157       .  T
C1012      N1019   1.157       .  T
C1013      N1017   1.158       .  T
C1014      N1020   1.157       .  T
C1015      N1024   1.157       .  T
C1016      N1022   1.157       .  T
C1025      C1026   1.412       .  A
C1025      C1030   1.415       .  A
C1025      C1043   1.449       .  S
C1026      C1031   1.500       .  S
C1026      C1027   1.412       .  A
C1027      C1028   1.410       .  A
C1027      C1032   1.451       .  S
C1028      C1029   1.411       .  A
C1028      C1044   1.451       .  S
C1029      C1030   1.413       .  A
C1030      C1033   1.450       .  S
C1031      C1034   1.409   1_455  A
C1031      C1038   1.410   1_554  A
C1032      N1049   1.157       .  T
C1033      N1051   1.157       .  T
C1034      C1035   1.415       .  A
C1034      C1039   1.450       .  S
C1035      C1036   1.419   1_554  A
C1035      C1041   1.450       .  S
C1036      C1037   1.418   1_655  A
C1037      C1038   1.411       .  A
C1037      C1040   1.451       .  S
C1038      C1042   1.452       .  S
C1039      N1046   1.157       .  T
C1040      N1047   1.157       .  T
C1041      N1045   1.157       .  T
C1042      N1048   1.157       .  T
C1043      N1052   1.157       .  T
C1044      N1050   1.157       .  T
C1053      C1054   1.414       .  A
C1053      C1058   1.415       .  A
C1053      C1071   1.450       .  S
C1054      C1059   1.501       .  S
C1054      C1055   1.411   1_556  A
C1055      C1056   1.408       .  A
C1055      C1060   1.452       .  S
C1056      C1057   1.418       .  A
C1056      C1072   1.453       .  S
C1057      C1058   1.415   1_554  A
C1058      C1061   1.450       .  S
C1059      C1062   1.408       .  A
C1059      C1066   1.411       .  A
C1060      N1077   1.157       .  T
C1061      N1079   1.157       .  T
C1062      C1063   1.410       .  A
C1062      C1067   1.453       .  S
C1063      C1064   1.423       .  A
C1063      C1069   1.449       .  S
C1064      C1065   1.424       .  A
C1065      C1066   1.415       .  A
C1065      C1068   1.451       .  S
C1066      C1070   1.451       .  S
C1067      N1074   1.157       .  T
C1068      N1075   1.158       .  T
C1069      N1073   1.156       .  T
C1070      N1076   1.157       .  T
C1071      N1080   1.157       .  T
C1072      N1078   1.158       .  T
C1081      C1082   1.411       .  A
C1081      C1086   1.410   1_554  A
C1081      C1099   1.451       .  S
C1082      C1087   1.501       .  S
C1082      C1083   1.414       .  A
C1083      C1084   1.416   1_554  A
C1083      C1088   1.450       .  S
C1084      C1085   1.412       .  A
C1084      C1100   1.450       .  S
C1085      C1086   1.414       .  A
C1086      C1089   1.451       .  S
C1087      C1090   1.410       .  A
C1087      C1094   1.413       .  A
C1088      N1105   1.157       .  T
C1089      N1107   1.157       .  T
C1090      C1091   1.409       .  A
C1090      C1095   1.452   1_554  S
C1091      C1092   1.416       .  A
C1091      C1097   1.453   1_554  S
C1092      C1093   1.413       .  A
C1093      C1094   1.417       .  A
C1093      C1096   1.449       .  S
C1094      C1098   1.449       .  S
C1095      N1102   1.157       .  T
C1096      N1103   1.157       .  T
C1097      N1101   1.157       .  T
C1098      N1104   1.157       .  T
C1099      N1108   1.157       .  T
C1100      N1106   1.158       .  T
C1109      C1110   1.411       .  A
C1109      C1114   1.412       .  A
C1109      C1127   1.449       .  S
C1110      C1115   1.501       .  S
C1110      C1111   1.412       .  A
C1111      C1112   1.413       .  A
C1111      C1116   1.451       .  S
C1112      C1113   1.413       .  A
C1112      C1128   1.450       .  S
C1113      C1114   1.414       .  A
C1114      C1117   1.451       .  S
C1115      C1118   1.412   1_556  A
C1115      C1122   1.410   1_545  A
C1116      N1133   1.157   1_556  T
C1117      N1135   1.157       .  T
C1118      C1119   1.412   1_545  A
C1118      C1123   1.451       .  S
C1119      C1120   1.414       .  A
C1119      C1125   1.451       .  S
C1120      C1121   1.416   1_554  A
C1121      C1122   1.414       .  A
C1121      C1124   1.451       .  S
C1122      C1126   1.449       .  S
C1123      N1130   1.157       .  T
C1124      N1131   1.157       .  T
C1125      N1129   1.157       .  T
C1126      N1132   1.157       .  T
C1127      N1136   1.157       .  T
C1128      N1134   1.157       .  T
C1137      C1138   1.411       .  A
C1137      C1142   1.413       .  A
C1137      C1155   1.451       .  S
C1138      C1143   1.504       .  S
C1138      C1139   1.411       .  A
C1139      C1140   1.416       .  A
C1139      C1144   1.450       .  S
C1140      C1141   1.417       .  A
C1140      C1156   1.450       .  S
C1141      C1142   1.418       .  A
C1142      C1145   1.452       .  S
C1143      C1146   1.411       .  A
C1143      C1150   1.411       .  A
C1144      N1161   1.157       .  T
C1145      N1163   1.157       .  T
C1146      C1147   1.414       .  A
C1146      C1151   1.451       .  S
C1147      C1148   1.417       .  A
C1147      C1153   1.451       .  S
C1148      C1149   1.416       .  A
C1149      C1150   1.415       .  A
C1149      C1152   1.450       .  S
C1150      C1154   1.450       .  S
C1151      N1158   1.157       .  T
C1152      N1159   1.157       .  T
C1153      N1157   1.157       .  T
C1154      N1160   1.157       .  T
C1155      N1164   1.157       .  T
C1156      N1162   1.157       .  T
C1165      C1166   1.412       .  A
C1165      C1170   1.417       .  A
C1165      C1183   1.450   1_545  S
C1166      C1171   1.510   1_545  S
C1166      C1167   1.412       .  A
C1167      C1168   1.415       .  A
C1167      C1172   1.452       .  S
C1168      C1169   1.420       .  A
C1168      C1184   1.451       .  S
C1169      C1170   1.420       .  A
C1170      C1173   1.451       .  S
C1171      C1174   1.416       .  A
C1171      C1178   1.413       .  A
C1172      N1189   1.157       .  T
C1173      N1191   1.157       .  T
C1174      C1175   1.420       .  A
C1174      C1179   1.449       .  S
C1175      C1176   1.413       .  A
C1175      C1181   1.449       .  S
C1176      C1177   1.415       .  A
C1177      C1178   1.412       .  A
C1177      C1180   1.451       .  S
C1178      C1182   1.452       .  S
C1179      N1186   1.157       .  T
C1180      N1187   1.157       .  T
C1181      N1185   1.157       .  T
C1182      N1188   1.157       .  T
C1183      N1192   1.157       .  T
C1184      N1190   1.157       .  T
C1193      C1194   1.408       .  A
C1193      C1198   1.412       .  A
C1193      C1211   1.449       .  S
C1194      C1199   1.485       .  S
C1194      C1195   1.404       .  A
C1195      C1196   1.402       .  A
C1195      C1200   1.455       .  S
C1196      C1197   1.421       .  A
C1196      C1212   1.450       .  S
C1197      C1198   1.416       .  A
C1198      C1201   1.450       .  S
C1199      C1202   1.410       .  A
C1199      C1206   1.409       .  A
C1200      N1217   1.157       .  T
C1201      N1219   1.157       .  T
C1202      C1203   1.402   1_556  A
C1202      C1207   1.452   1_556  S
C1203      C1204   1.412       .  A
C1203      C1209   1.453       .  S
C1204      C1205   1.412   1_554  A
C1205      C1206   1.410       .  A
C1205      C1208   1.450       .  S
C1206      C1210   1.449       .  S
C1207      N1214   1.157       .  T
C1208      N1215   1.157       .  T
C1209      N1213   1.157       .  T
C1210      N1216   1.157       .  T
C1211      N1220   1.157       .  T
C1212      N1218   1.157       .  T
C1221      C1222   1.411       .  A
C1221      C1226   1.411       .  A
C1221      C1239   1.450       .  S
C1222      C1227   1.486   1_655  S
C1222      C1223   1.405       .  A
C1223      C1224   1.404       .  A
C1223      C1228   1.454       .  S
C1224      C1225   1.414       .  A
C1224      C1240   1.444       .  S
C1225      C1226   1.412       .  A
C1226      C1229   1.450       .  S
C1227      C1230   1.410   1_554  A
C1227      C1234   1.407       .  A
C1228      N1245   1.157       .  T
C1229      N1247   1.157       .  T
C1230      C1231   1.404       .  A
C1230      C1235   1.451   1_455  S
C1231      C1232   1.414       .  A
C1231      C1237   1.452       .  S
C1232      C1233   1.417   1_556  A
C1233      C1234   1.408       .  A
C1233      C1236   1.452       .  S
C1234      C1238   1.450       .  S
C1235      N1242   1.157       .  T
C1236      N1243   1.157       .  T
C1237      N1241   1.158       .  T
C1238      N1244   1.157       .  T
C1239      N1248   1.157   1_655  T
C1240      N1246   1.155       .  T
C1249      C1250   1.412       .  A
C1249      C1254   1.417       .  A
C1249      C1267   1.449       .  S
C1250      C1255   1.499   1_565  S
C1250      C1251   1.409       .  A
C1251      C1252   1.408       .  A
C1251      C1256   1.452       .  S
C1252      C1253   1.416       .  A
C1252      C1268   1.452       .  S
C1253      C1254   1.416       .  A
C1254      C1257   1.451       .  S
C1255      C1258   1.412   1_545  A
C1255      C1262   1.411       .  A
C1256      N1273   1.157   1_556  T
C1257      N1275   1.157       .  T
C1258      C1259   1.411   1_566  A
C1258      C1263   1.451       .  S
C1259      C1260   1.410   1_554  A
C1259      C1265   1.449       .  S
C1260      C1261   1.414       .  A
C1261      C1262   1.415       .  A
C1261      C1264   1.449       .  S
C1262      C1266   1.450       .  S
C1263      N1270   1.157       .  T
C1264      N1271   1.157       .  T
C1265      N1269   1.157       .  T
C1266      N1272   1.157       .  T
C1267      N1276   1.157       .  T
C1268      N1274   1.157       .  T
C1277      C1278   1.411       .  A
C1277      C1282   1.410       .  A
C1277      C1295   1.451   1_554  S
C1278      C1283   1.498       .  S
C1278      C1279   1.412       .  A
C1279      C1280   1.413       .  A
C1279      C1284   1.449       .  S
C1280      C1281   1.411       .  A
C1280      C1296   1.451       .  S
C1281      C1282   1.412       .  A
C1282      C1285   1.450       .  S
C1283      C1286   1.408       .  A
C1283      C1290   1.410       .  A
C1284      N1301   1.157       .  T
C1285      N1303   1.157   1_554  T
C1286      C1287   1.414       .  A
C1286      C1291   1.451       .  S
C1287      C1288   1.423   1_554  A
C1287      C1293   1.451       .  S
C1288      C1289   1.418       .  A
C1289      C1290   1.412   1_556  A
C1289      C1292   1.450       .  S
C1290      C1294   1.452   1_554  S
C1291      N1298   1.157       .  T
C1292      N1299   1.157       .  T
C1293      N1297   1.157       .  T
C1294      N1300   1.157       .  T
C1295      N1304   1.157       .  T
C1296      N1302   1.157       .  T
C1305      C1306   1.410       .  A
C1305      C1310   1.411       .  A
C1305      C1323   1.452       .  S
C1306      C1311   1.504       .  S
C1306      C1307   1.411       .  A
C1307      C1308   1.418       .  A
C1307      C1312   1.449       .  S
C1308      C1309   1.420       .  A
C1308      C1324   1.449       .  S
C1309      C1310   1.420       .  A
C1310      C1313   1.452       .  S
C1311      C1314   1.410       .  A
C1311      C1318   1.409       .  A
C1312      N1329   1.157       .  T
C1313      N1331   1.158       .  T
C1314      C1315   1.415       .  A
C1314      C1319   1.451       .  S
C1315      C1316   1.422       .  A
C1315      C1321   1.450       .  S
C1316      C1317   1.422       .  A
C1317      C1318   1.415       .  A
C1317      C1320   1.452       .  S
C1318      C1322   1.450       .  S
C1319      N1326   1.157       .  T
C1320      N1327   1.157       .  T
C1321      N1325   1.158       .  T
C1322      N1328   1.157       .  T
C1323      N1332   1.157       .  T
C1324      N1330   1.157       .  T
C1333      C1334   1.410       .  A
C1333      C1338   1.415       .  A
C1333      C1351   1.451       .  S
C1334      C1339   1.504       .  S
C1334      C1335   1.411       .  A
C1335      C1336   1.414       .  A
C1335      C1340   1.451       .  S
C1336      C1337   1.420       .  A
C1336      C1352   1.451       .  S
C1337      C1338   1.419       .  A
C1338      C1341   1.450       .  S
C1339      C1342   1.412       .  A
C1339      C1346   1.413       .  A
C1340      N1357   1.157       .  T
C1341      N1359   1.157       .  T
C1342      C1343   1.412       .  A
C1342      C1347   1.450       .  S
C1343      C1344   1.413       .  A
C1343      C1349   1.450       .  S
C1344      C1345   1.415       .  A
C1345      C1346   1.415       .  A
C1345      C1348   1.451       .  S
C1346      C1350   1.450       .  S
C1347      N1354   1.157       .  T
C1348      N1355   1.157       .  T
C1349      N1353   1.157       .  T
C1350      N1356   1.157       .  T
C1351      N1360   1.157       .  T
C1352      N1358   1.157       .  T
C1361      C1362   1.411       .  A
C1361      C1366   1.416       .  A
C1361      C1379   1.451       .  S
C1362      C1367   1.507       .  S
C1362      C1363   1.410       .  A
C1363      C1364   1.414       .  A
C1363      C1368   1.452       .  S
C1364      C1365   1.422       .  A
C1364      C1380   1.448       .  S
C1365      C1366   1.423       .  A
C1366      C1369   1.451       .  S
C1367      C1370   1.412       .  A
C1367      C1374   1.412       .  A
C1368      N1385   1.157       .  T
C1369      N1387   1.158       .  T
C1370      C1371   1.413       .  A
C1370      C1375   1.451       .  S
C1371      C1372   1.419       .  A
C1371      C1377   1.451       .  S
C1372      C1373   1.418       .  A
C1373      C1374   1.415       .  A
C1373      C1376   1.451       .  S
C1374      C1378   1.450       .  S
C1375      N1382   1.157       .  T
C1376      N1383   1.157       .  T
C1377      N1381   1.157       .  T
C1378      N1384   1.157       .  T
C1379      N1388   1.157       .  T
C1380      N1386   1.156       .  T
C1389      C1390   1.412       .  A
C1389      C1394   1.418       .  A
C1389      C1407   1.449       .  S
C1390      C1395   1.506       .  S
C1390      C1391   1.410       .  A
C1391      C1392   1.412       .  A
C1391      C1396   1.451       .  S
C1392      C1393   1.418       .  A
C1392      C1408   1.451       .  S
C1393      C1394   1.418       .  A
C1394      C1397   1.450       .  S
C1395      C1398   1.410       .  A
C1395      C1402   1.409       .  A
C1396      N1413   1.157       .  T
C1397      N1415   1.157       .  T
C1398      C1399   1.418       .  A
C1398      C1403   1.450       .  S
C1399      C1400   1.423       .  A
C1399      C1405   1.450       .  S
C1400      C1401   1.424       .  A
C1401      C1402   1.414       .  A
C1401      C1404   1.452       .  S
C1402      C1406   1.452       .  S
C1403      N1410   1.157       .  T
C1404      N1411   1.157       .  T
C1405      N1409   1.158       .  T
C1406      N1412   1.157       .  T
C1407      N1416   1.157       .  T
C1408      N1414   1.157       .  T
C1417      C1418   1.409       .  A
C1417      C1422   1.406       .  A
C1417      C1435   1.454   1_455  S
C1418      C1423   1.496   1_455  S
C1418      C1419   1.411       .  A
C1419      C1420   1.414       .  A
C1419      C1424   1.450       .  S
C1420      C1421   1.418       .  A
C1420      C1436   1.450       .  S
C1421      C1422   1.423       .  A
C1422      C1425   1.453       .  S
C1423      C1426   1.412       .  A
C1423      C1430   1.407       .  A
C1424      N1441   1.157       .  T
C1425      N1443   1.158       .  T
C1426      C1427   1.415       .  A
C1426      C1431   1.450       .  S
C1427      C1428   1.416       .  A
C1427      C1433   1.450       .  S
C1428      C1429   1.423       .  A
C1429      C1430   1.406       .  A
C1429      C1432   1.452       .  S
C1430      C1434   1.455       .  S
C1431      N1438   1.157   1_655  T
C1432      N1439   1.157       .  T
C1433      N1437   1.157       .  T
C1434      N1440   1.157       .  T
C1435      N1444   1.157       .  T
C1436      N1442   1.157       .  T
C1445      C1446   1.406       .  A
C1445      C1450   1.411       .  A
C1445      C1463   1.452       .  S
C1446      C1451   1.494       .  S
C1446      C1447   1.409       .  A
C1447      C1448   1.410       .  A
C1447      C1452   1.451       .  S
C1448      C1449   1.420       .  A
C1448      C1464   1.451       .  S
C1449      C1450   1.426       .  A
C1450      C1453   1.452       .  S
C1451      C1454   1.410       .  A
C1451      C1458   1.410       .  A
C1452      N1469   1.157       .  T
C1453      N1471   1.158       .  T
C1454      C1455   1.412       .  A
C1454      C1459   1.450       .  S
C1455      C1456   1.412       .  A
C1455      C1461   1.448       .  S
C1456      C1457   1.412       .  A
C1457      C1458   1.408       .  A
C1457      C1460   1.450       .  S
C1458      C1462   1.452       .  S
C1459      N1466   1.157       .  T
C1460      N1467   1.156       .  T
C1461      N1465   1.157       .  T
C1462      N1468   1.157       .  T
C1463      N1472   1.157       .  T
C1464      N1470   1.157       .  T
C1473      C1474   1.406       .  A
C1473      C1478   1.404       .  A
C1473      C1491   1.455       .  S
C1474      C1479   1.490       .  S
C1474      C1475   1.407       .  A
C1475      C1476   1.415       .  A
C1475      C1480   1.449       .  S
C1476      C1477   1.419       .  A
C1476      C1492   1.449       .  S
C1477      C1478   1.425       .  A
C1478      C1481   1.453       .  S
C1479      C1482   1.406       .  A
C1479      C1486   1.409       .  A
C1480      N1497   1.157       .  T
C1481      N1499   1.158       .  T
C1482      C1483   1.409       .  A
C1482      C1487   1.451       .  S
C1483      C1484   1.422       .  A
C1483      C1489   1.451       .  S
C1484      C1485   1.412       .  A
C1485      C1486   1.409       .  A
C1485      C1488   1.450       .  S
C1486      C1490   1.449       .  S
C1487      N1494   1.157       .  T
C1488      N1495   1.157       .  T
C1489      N1493   1.158       .  T
C1490      N1496   1.157       .  T
C1491      N1500   1.157       .  T
C1492      N1498   1.157       .  T
C1501      C1502   1.408       .  A
C1501      C1506   1.413       .  A
C1501      C1519   1.450       .  S
C1502      C1507   1.495   1_565  S
C1502      C1503   1.412       .  A
C1503      C1504   1.407       .  A
C1503      C1508   1.452   1_565  S
C1504      C1505   1.415       .  A
C1504      C1520   1.452       .  S
C1505      C1506   1.418       .  A
C1506      C1509   1.450       .  S
C1507      C1510   1.411       .  A
C1507      C1514   1.405       .  A
C1508      N1525   1.157       .  T
C1509      N1527   1.157       .  T
C1510      C1511   1.417       .  A
C1510      C1515   1.449       .  S
C1511      C1512   1.416       .  A
C1511      C1517   1.449       .  S
C1512      C1513   1.422       .  A
C1513      C1514   1.404       .  A
C1513      C1516   1.450       .  S
C1514      C1518   1.455       .  S
C1515      N1522   1.157   1_545  T
C1516      N1523   1.157       .  T
C1517      N1521   1.157       .  T
C1518      N1524   1.157       .  T
C1519      N1528   1.157       .  T
C1520      N1526   1.157       .  T
C1529      C1530   1.410       .  A
C1529      C1534   1.413       .  A
C1529      C1547   1.451       .  S
C1530      C1535   1.506       .  S
C1530      C1531   1.411       .  A
C1531      C1532   1.418       .  A
C1531      C1536   1.450       .  S
C1532      C1533   1.420       .  A
C1532      C1548   1.450       .  S
C1533      C1534   1.419       .  A
C1534      C1537   1.451       .  S
C1535      C1538   1.410       .  A
C1535      C1542   1.412       .  A
C1536      N1553   1.157       .  T
C1537      N1555   1.157       .  T
C1538      C1539   1.413       .  A
C1538      C1543   1.451       .  S
C1539      C1540   1.419       .  A
C1539      C1545   1.452       .  S
C1540      C1541   1.417       .  A
C1541      C1542   1.417       .  A
C1541      C1544   1.450       .  S
C1542      C1546   1.449       .  S
C1543      N1550   1.157       .  T
C1544      N1551   1.157       .  T
C1545      N1549   1.158       .  T
C1546      N1552   1.157       .  T
C1547      N1556   1.157       .  T
C1548      N1554   1.157       .  T
C1557      C1558   1.415       .  A
C1557      C1562   1.417       .  A
C1557      C1575   1.449   1_655  S
C1558      C1563   1.507   1_645  S
C1558      C1559   1.412       .  A
C1559      C1560   1.412       .  A
C1559      C1564   1.452   1_545  S
C1560      C1561   1.417       .  A
C1560      C1576   1.451       .  S
C1561      C1562   1.412       .  A
C1562      C1565   1.450       .  S
C1563      C1566   1.413       .  A
C1563      C1570   1.412       .  A
C1564      N1581   1.157       .  T
C1565      N1583   1.157       .  T
C1566      C1567   1.416       .  A
C1566      C1571   1.452   1_565  S
C1567      C1568   1.418       .  A
C1567      C1573   1.449       .  S
C1568      C1569   1.417       .  A
C1569      C1570   1.415       .  A
C1569      C1572   1.451       .  S
C1570      C1574   1.450   1_455  S
C1571      N1578   1.157       .  T
C1572      N1579   1.157       .  T
C1573      N1577   1.157       .  T
C1574      N1580   1.157       .  T
C1575      N1584   1.157       .  T
C1576      N1582   1.157       .  T
C1585      C1586   1.411       .  A
C1585      C1590   1.410       .  A
C1585      C1603   1.451       .  S
C1586      C1591   1.491       .  S
C1586      C1587   1.408       .  A
C1587      C1588   1.408       .  A
C1587      C1592   1.451       .  S
C1588      C1589   1.415       .  A
C1588      C1604   1.451       .  S
C1589      C1590   1.413       .  A
C1590      C1593   1.451       .  S
C1591      C1594   1.408   1_565  A
C1591      C1598   1.411       .  A
C1592      N1609   1.157       .  T
C1593      N1611   1.157       .  T
C1594      C1595   1.411       .  A
C1594      C1599   1.450       .  S
C1595      C1596   1.416       .  A
C1595      C1601   1.451       .  S
C1596      C1597   1.412       .  A
C1597      C1598   1.408   1_545  A
C1597      C1600   1.451   1_545  S
C1598      C1602   1.452       .  S
C1599      N1606   1.157       .  T
C1600      N1607   1.157       .  T
C1601      N1605   1.157       .  T
C1602      N1608   1.157       .  T
C1603      N1612   1.157       .  T
C1604      N1610   1.158       .  T
C1613      C1614   1.411       .  A
C1613      C1618   1.413       .  A
C1613      C1631   1.450       .  S
C1614      C1619   1.495       .  S
C1614      C1615   1.408       .  A
C1615      C1616   1.409       .  A
C1615      C1620   1.451       .  S
C1616      C1617   1.418       .  A
C1616      C1632   1.452       .  S
C1617      C1618   1.416       .  A
C1618      C1621   1.451       .  S
C1619      C1622   1.410       .  A
C1619      C1626   1.408       .  A
C1620      N1637   1.157       .  T
C1621      N1639   1.158       .  T
C1622      C1623   1.415       .  A
C1622      C1627   1.449       .  S
C1623      C1624   1.417       .  A
C1623      C1629   1.450       .  S
C1624      C1625   1.422       .  A
C1625      C1626   1.406       .  A
C1625      C1628   1.453       .  S
C1626      C1630   1.453       .  S
C1627      N1634   1.157       .  T
C1628      N1635   1.158       .  T
C1629      N1633   1.157       .  T
C1630      N1636   1.157       .  T
C1631      N1640   1.157       .  T
C1632      N1638   1.157       .  T
C1641      C1642   1.411       .  A
C1641      C1646   1.410       .  A
C1641      C1659   1.451       .  S
C1642      C1647   1.500       .  S
C1642      C1643   1.413       .  A
C1643      C1644   1.412       .  A
C1643      C1648   1.451       .  S
C1644      C1645   1.414       .  A
C1644      C1660   1.450       .  S
C1645      C1646   1.415       .  A
C1646      C1649   1.451       .  S
C1647      C1650   1.408   1_455  A
C1647      C1654   1.409       .  A
C1648      N1665   1.157       .  T
C1649      N1667   1.158       .  T
C1650      C1651   1.415       .  A
C1650      C1655   1.451       .  S
C1651      C1652   1.426       .  A
C1651      C1657   1.450       .  S
C1652      C1653   1.426       .  A
C1653      C1654   1.411   1_655  A
C1653      C1656   1.451       .  S
C1654      C1658   1.454       .  S
C1655      N1662   1.157       .  T
C1656      N1663   1.157       .  T
C1657      N1661   1.157       .  T
C1658      N1664   1.157       .  T
C1659      N1668   1.157       .  T
C1660      N1666   1.157       .  T
C1669      C1670   1.411       .  A
C1669      C1674   1.408       .  A
C1669      C1687   1.452       .  S
C1670      C1675   1.498       .  S
C1670      C1671   1.413       .  A
C1671      C1672   1.414       .  A
C1671      C1676   1.449       .  S
C1672      C1673   1.412       .  A
C1672      C1688   1.451       .  S
C1673      C1674   1.413       .  A
C1674      C1677   1.452       .  S
C1675      C1678   1.411       .  A
C1675      C1682   1.411       .  A
C1676      N1693   1.157       .  T
C1677      N1695   1.157       .  T
C1678      C1679   1.411       .  A
C1678      C1683   1.452       .  S
C1679      C1680   1.413       .  A
C1679      C1685   1.448       .  S
C1680      C1681   1.414       .  A
C1681      C1682   1.412       .  A
C1681      C1684   1.451       .  S
C1682      C1686   1.450       .  S
C1683      N1690   1.157       .  T
C1684      N1691   1.157       .  T
C1685      N1689   1.156       .  T
C1686      N1692   1.157       .  T
C1687      N1696   1.157       .  T
C1688      N1694   1.157       .  T
