geometry optimzed in LAMMPS
_audit_creation_date              2020-12-01 
_audit_creation_method            'lammps2cif' 
_symmetry_space_group_name_H-M    'P1' 
_symmetry_Int_Tables_number       1 
_symmetry_cell_setting            triclinic 
loop_ 
_symmetry_equiv_pos_as_xyz 
  x,y,z 
_cell_length_a                    30.69664945 
_cell_length_b                    30.643611922994516 
_cell_length_c                    169.26084018820856 
_cell_angle_alpha                 90.01622169944112 
_cell_angle_beta                  89.91619794264395 
_cell_angle_gamma                 119.85996332245173 
loop_ 
_atom_site_label 
_atom_site_type_symbol 
_atom_site_fract_x 
_atom_site_fract_y 
_atom_site_fract_z 
_atom_site_charge 
Zr1        Zr  0.78115194  0.19206961  0.61341818     2.17500
O2          O  0.80062565  0.24210795  0.60135617    -0.51800
O3          O  0.69963028  0.18305469  0.61566728    -0.75000
O4          O  0.73490048  0.14040638  0.60212159    -0.81700
O5          O  0.84846567  0.30294443  0.62710279    -0.83500
O6          O  0.74005788  0.06911985  0.60212666    -0.79100
O7          O  0.80749269  0.28042995  0.61535306    -0.90700
O8          O  0.66238770  0.12333178  0.62518398    -0.76700
O9          O  0.73679476  0.10531361  0.61700690    -0.86200
O10         O  0.76752119  0.19069750  0.62736624    -0.85900
O11         O  0.83374238  0.15855996  0.60946941    -0.72600
O12         O  0.86216000  0.23748919  0.61943457    -0.84800
Zr13       Zr  0.86007112  0.11601331  0.63327673     2.26400
Zr14       Zr  0.79028103  0.07216837  0.61359373     2.06300
Zr15       Zr  0.84861769  0.23196935  0.63338459     2.10000
Zr16       Zr  0.72438483  0.10386158  0.63076534     1.78800
O17         O  0.93295230  0.29614997  0.63720423    -0.93600
O18         O  0.65307354  0.02300139  0.62704945    -0.41400
O19         O  0.80652239  0.14723494  0.63493054    -0.78000
O20         O  0.77649726  0.06774962  0.62763962    -0.96700
O21         O  0.87233612  0.11733298  0.61939629    -0.90000
O22         O  0.90511034  0.20271420  0.62981572    -0.92900
C23         C  0.66231413  0.15438844  0.62007238     1.00900
C24         C  0.83235210  0.31291869  0.62074921     1.13800
C25         C  0.72432108  0.09755701  0.59918287     1.04600
O26         O  0.71894311  0.98936496  0.61087131    -0.95000
O27         O  0.80036559  0.00339962  0.61884766    -0.90800
O28         O  0.84090243  0.03063925  0.63055939    -0.83900
C29         C  0.82019625  0.99735967  0.62514520     1.11200
O30         O  0.93402752  0.25218169  0.60341716    -0.97000
Zr31       Zr  0.91437889  0.20402000  0.61569142     1.88900
O32         O  0.95104728  0.14583345  0.63185463    -0.73600
O33         O  0.84032974  0.06553630  0.60297200    -0.52900
O34         O  0.94825893  0.17338352  0.60541932    -0.97600
O35         O  0.97662247  0.29205245  0.61792675    -0.54800
O36         O  0.98232290  0.19729520  0.62121306    -0.74200
C37         C  0.98708463  0.17382038  0.62706595     0.98200
O38         O  0.88090279  0.07838425  0.64432452    -0.63000
O39         O  0.81921672  0.27301792  0.64255763    -0.57800
O40         O  0.84845114  0.13446215  0.64697427    -0.94500
O41         O  0.84058696  0.20425234  0.64709332    -0.92900
O42         O  0.69466665  0.13032412  0.64215362    -0.93200
O43         O  0.69705318  0.04769250  0.64213984    -0.92000
C44         C  0.84031124  0.16681545  0.65055615     1.17000
H45         H  0.74916519  0.20748058  0.62882953     0.33000
H46         H  0.75939636  0.03336674  0.62949853     0.43800
H47         H  0.93665053  0.22072445  0.63258907     0.37400
H48         H  0.83779673  0.16051226  0.60380211     0.33800
H49         H  0.64442559  0.02762899  0.62159857     0.25600
H50         H  0.85755222  0.04891065  0.60542465     0.31600
H51         H  0.94493324  0.14178556  0.60755443     0.37500
H52         H  0.69476202  0.16118010  0.64039380     0.31900
H53         H  0.84709192  0.30824176  0.64289207     0.30800
H54         H  0.93918472  0.28492279  0.64235157     0.32500
H55         H  0.00764195  0.29673247  0.61535812     0.31500
H56         H  0.72838084  0.05112011  0.64438117     0.35500
H57         H  0.85074810  0.04524327  0.64533059     0.28200
H58         H  0.76789964  0.23621931  0.59932331     0.32400
H59         H  0.97031988  0.26560977  0.60243817     0.35300
H60         H  0.79200097  0.27509794  0.63976120     0.27900
H61         H  0.90627056  0.07037013  0.64222866     0.40800
H62         H  0.68929734  0.99143930  0.61265211     0.30800
H63         H  0.66655790  0.99977340  0.62651567     0.38400
H64         H  0.98399377  0.29443388  0.62364988     0.30300
H65         H  0.81539196  0.03985648  0.59935968     0.30300
H66         H  0.81190902  0.22551976  0.59749112     0.30600
Zr67       Zr  0.80385707  0.20231325  0.70129881     2.17500
O68         O  0.80759715  0.25911316  0.69084953    -0.51800
O69         O  0.71479545  0.17872731  0.70264554    -0.75000
O70         O  0.79128201  0.16849611  0.68771869    -0.81700
O71         O  0.86759101  0.31499939  0.71546261    -0.83500
O72         O  0.79917093  0.09874251  0.68784495    -0.79100
O73         O  0.82536411  0.28816423  0.70382541    -0.90700
O74         O  0.68147294  0.12559209  0.71306746    -0.76700
O75         O  0.75555691  0.11673613  0.70531260    -0.86200
O76         O  0.79400983  0.20422092  0.71530337    -0.85900
O77         O  0.85811994  0.16940243  0.69785105    -0.72600
O78         O  0.88699846  0.24698590  0.70709273    -0.84800
Zr79       Zr  0.87878728  0.12346955  0.72135817     2.26400
Zr80       Zr  0.80805180  0.08283964  0.70172287     2.06300
Zr81       Zr  0.87619843  0.24618154  0.72113676     2.10000
Zr82       Zr  0.74792141  0.11890517  0.71935660     1.78800
O83         O  0.95282117  0.32630631  0.72307338    -0.93600
O84         O  0.68016946  0.03187637  0.71857907    -0.41400
O85         O  0.82940298  0.16043703  0.72537184    -0.78000
O86         O  0.79600177  0.08061081  0.71576004    -0.96700
O87         O  0.89031374  0.12437734  0.70741943    -0.90000
O88         O  0.92612108  0.20953539  0.71759719    -0.92900
C89         C  0.67800189  0.15025752  0.70725358     1.00900
C90         C  0.84754752  0.32139803  0.70920225     1.13800
C91         C  0.79509896  0.13328125  0.68417939     1.04600
O92         O  0.72004044  0.02189433  0.69938994    -0.95000
O93         O  0.81254379  0.01264476  0.70728270    -0.90800
O94         O  0.85655091  0.03669592  0.71878199    -0.83900
C95         C  0.83152748  0.00401101  0.71341475     1.11200
O96         O  0.96488991  0.27527952  0.69366499    -0.97000
Zr97       Zr  0.93823998  0.21067710  0.70385543     1.88900
O98         O  0.95956669  0.13017968  0.71891400    -0.73600
O99         O  0.83073665  0.02946297  0.69413718    -0.52900
O100        O  0.96280525  0.18693586  0.69160437    -0.97600
O101        O  0.01495307  0.28558797  0.70814036    -0.54800
O102        O  0.99048778  0.17532459  0.70760652    -0.74200
C103        C  0.99188925  0.14843838  0.71330610     0.98200
O104        O  0.85557332  0.07492199  0.73359476    -0.63000
O105        O  0.83151739  0.25913976  0.73195742    -0.57800
O106        O  0.92723335  0.17292605  0.73267584    -0.94500
O107        O  0.92456631  0.24562544  0.73273598    -0.92900
O108        O  0.72038780  0.15974155  0.72890341    -0.93200
O109        O  0.72575913  0.07402330  0.73189966    -0.92000
C110        C  0.93909763  0.21602572  0.73566424     1.17000
H111        H  0.77583820  0.22149793  0.71660530     0.33000
H112        H  0.77756134  0.04640626  0.71766265     0.43800
H113        H  0.95860018  0.22617763  0.72013082     0.37400
H114        H  0.86859795  0.17496267  0.69241642     0.33800
H115        H  0.65036299  0.03231780  0.72072226     0.25600
H116        H  0.81426251  0.02424135  0.68893143     0.31600
H117        H  0.99991943  0.20375946  0.69183528     0.37500
H118        H  0.68342544  0.14276673  0.72831639     0.31900
H119        H  0.82378427  0.23133084  0.73569242     0.30800
H120        H  0.94425411  0.34350627  0.72723409     0.32500
H121        H  0.03384064  0.27294849  0.71120718     0.31500
H122        H  0.74590240  0.05692617  0.73206294     0.35500
H123        H  0.84516852  0.09339721  0.73723235     0.28200
H124        H  0.77520628  0.24129808  0.68799130     0.32400
H125        H  0.00148555  0.28897811  0.69301850     0.35300
H126        H  0.85743062  0.28964438  0.73468564     0.27900
H127        H  0.82386573  0.04358059  0.73240554     0.40800
H128        H  0.72021441  0.00431576  0.69449078     0.30800
H129        H  0.67331975  0.02545645  0.71286106     0.38400
H130        H  0.00395374  0.30187468  0.71210060     0.30300
H131        H  0.86717483  0.05071142  0.69311211     0.30300
H132        H  0.83339170  0.26198286  0.68703145     0.30600
Zr133      Zr  0.81578872  0.59251672  0.61300147     2.17500
O134        O  0.76542492  0.55324127  0.60125301    -0.51800
O135        O  0.82987484  0.52277178  0.61501587    -0.75000
O136        O  0.86671423  0.60445058  0.60124341    -0.81700
O137        O  0.70433543  0.54352362  0.62682661    -0.83500
O138        O  0.93564081  0.68250138  0.60120001    -0.79100
O139        O  0.72760892  0.52929611  0.61478022    -0.90700
O140        O  0.88627182  0.54340993  0.62490074    -0.76700
O141        O  0.90285609  0.63861787  0.61619027    -0.86200
O142        O  0.82018366  0.58059009  0.62684836    -0.85900
O143        O  0.84383805  0.67792118  0.60928050    -0.72600
O144        O  0.76735583  0.62431043  0.61927668    -0.84800
Zr145      Zr  0.88800344  0.74590942  0.63328501     2.26400
Zr146      Zr  0.93042769  0.72476342  0.61310629     2.06300
Zr147      Zr  0.77426013  0.61490959  0.63314916     2.10000
Zr148      Zr  0.90748622  0.62640407  0.62987899     1.78800
O149        O  0.70776482  0.63002997  0.63777352    -0.93600
O150        O  0.98697613  0.63786515  0.62485373    -0.41400
O151        O  0.86128052  0.65995536  0.63624417    -0.78000
O152        O  0.93771411  0.71409421  0.62698636    -0.96700
O153        O  0.88295271  0.75721715  0.61944556    -0.90000
O154        O  0.80082100  0.70062132  0.62993421    -0.92900
C155        C  0.85694887  0.51292992  0.61958907     1.00900
C156        C  0.69497734  0.51944423  0.62027386     1.13800
C157        C  0.90791614  0.63873145  0.59813794     1.04600
O158        O  0.01736164  0.74538033  0.61151543    -0.95000
O159        O  0.98999696  0.80921524  0.61770946    -0.90800
O160        O  0.97292518  0.81388060  0.63063478    -0.83900
C161        C  0.00004111  0.83191543  0.62441270     1.11200
O162        O  0.73868708  0.67734732  0.60483424    -0.97000
Zr163      Zr  0.79669935  0.70980034  0.61593362     1.88900
O164        O  0.85538662  0.80457531  0.63233328    -0.73600
O165        O  0.93502762  0.77848917  0.60218428    -0.52900
O166        O  0.82331810  0.76492673  0.60444735    -0.97600
O167        O  0.71236850  0.69401157  0.61896785    -0.54800
O168        O  0.81172095  0.78904022  0.62089909    -0.74200
C169        C  0.83174760  0.81518875  0.62708718     0.98200
O170        O  0.92663597  0.80908782  0.64368744    -0.63000
O171        O  0.74130347  0.54177946  0.64185721    -0.57800
O172        O  0.86938901  0.71187478  0.64689405    -0.94500
O173        O  0.79657832  0.63724333  0.64685677    -0.92900
O174        O  0.88757867  0.57229375  0.64142629    -0.93200
O175        O  0.96774474  0.66066642  0.64069137    -0.92000
C176        C  0.83432646  0.67287772  0.65044091     1.17000
H177        H  0.80507949  0.54552992  0.62825858     0.33000
H178        H  0.97254761  0.73303406  0.62854720     0.43800
H179        H  0.78178176  0.71271808  0.63282586     0.37400
H180        H  0.84087235  0.68011146  0.60363510     0.33800
H181        H  0.99874042  0.62301461  0.62893851     0.25600
H182        H  0.93208513  0.80610102  0.60469499     0.31600
H183        H  0.80263728  0.78146096  0.60458574     0.37500
H184        H  0.85158269  0.56012697  0.64247334     0.31900
H185        H  0.70489705  0.52971806  0.64232588     0.30800
H186        H  0.69587862  0.61076762  0.64276565     0.32500
H187        H  0.71707391  0.72071629  0.62273668     0.31500
H188        H  0.97955470  0.69718069  0.64072303     0.35500
H189        H  0.89888405  0.80502014  0.64717236     0.28200
H190        H  0.77695956  0.53037645  0.59922270     0.32400
H191        H  0.74842488  0.65546883  0.60192347     0.35300
H192        H  0.74331537  0.51526741  0.63880750     0.27900
H193        H  0.94678494  0.79883449  0.64694058     0.40800
H194        H  0.01769932  0.71464101  0.61320906     0.30800
H195        H  0.97779936  0.61453029  0.62031416     0.38400
H196        H  0.69700266  0.66279925  0.62216315     0.30300
H197        H  0.97039985  0.79457256  0.60038737     0.30300
H198        H  0.77664255  0.58038418  0.59726453     0.30600
Zr199      Zr  0.78033190  0.57389263  0.70130323     2.17500
O200        O  0.73328636  0.50680113  0.69178571    -0.51800
O201        O  0.80987450  0.51291429  0.70281834    -0.75000
O202        O  0.80864437  0.59878937  0.68751758    -0.81700
O203        O  0.67165815  0.51891860  0.71604711    -0.83500
O204        O  0.87879186  0.67598182  0.68750889    -0.79100
O205        O  0.69256874  0.51050562  0.70350494    -0.90700
O206        O  0.86065136  0.53266918  0.71347647    -0.76700
O207        O  0.86740042  0.61813602  0.70458893    -0.86200
O208        O  0.78477012  0.56367735  0.71522731    -0.85900
O209        O  0.80649842  0.66015470  0.69787137    -0.72600
O210        O  0.73177054  0.60694156  0.70754476    -0.84800
Zr211      Zr  0.85444807  0.72795902  0.72132390     2.26400
Zr212      Zr  0.89436887  0.70373791  0.70117787     2.06300
Zr213      Zr  0.73800340  0.59761935  0.72148461     2.10000
Zr214      Zr  0.87154583  0.60988010  0.71857890     1.78800
O215        O  0.65494701  0.58697895  0.72381890    -0.93600
O216        O  0.95590973  0.62791776  0.71502994    -0.41400
O217        O  0.82477401  0.64247350  0.72520296    -0.78000
O218        O  0.90239388  0.69537838  0.71506800    -0.96700
O219        O  0.84887717  0.73844161  0.70750353    -0.90000
O220        O  0.76739500  0.68325297  0.71809944    -0.92900
C221        C  0.83701472  0.50430572  0.70766337     1.00900
C222        C  0.66254032  0.49510824  0.70945149     1.13800
C223        C  0.84393852  0.63748636  0.68393375     1.04600
O224        O  0.96426440  0.68841104  0.69932581    -0.95000
O225        O  0.95829498  0.78471167  0.70620633    -0.90800
O226        O  0.93726361  0.79935175  0.71841924    -0.83900
C227        C  0.96732706  0.81146057  0.71248060     1.11200
O228        O  0.69946452  0.65837402  0.69398397    -0.97000
Zr229      Zr  0.76196084  0.69400565  0.70446169     1.88900
O230        O  0.83931040  0.79744389  0.71962322    -0.73600
O231        O  0.93628413  0.77561865  0.69226517    -0.52900
O232        O  0.78867596  0.74960468  0.69300847    -0.97600
O233        O  0.68187125  0.68553694  0.70852706    -0.54800
O234        O  0.78486769  0.77698333  0.70940844    -0.74200
C235        C  0.81324602  0.80727129  0.71479724     0.98200
O236        O  0.90711284  0.75355781  0.73307570    -0.63000
O237        O  0.72971384  0.53937580  0.73193066    -0.57800
O238        O  0.80450155  0.72054297  0.73292525    -0.94500
O239        O  0.73622937  0.64216228  0.73341766    -0.92900
O240        O  0.84781091  0.54885249  0.72924868    -0.93200
O241        O  0.92816460  0.64516154  0.72980141    -0.92000
C242        C  0.76349005  0.68695374  0.73618083     1.17000
H243        H  0.77051936  0.52856793  0.71658622     0.33000
H244        H  0.93720812  0.71414615  0.71665548     0.43800
H245        H  0.74876755  0.69643954  0.72081882     0.37400
H246        H  0.79939578  0.66512791  0.69251633     0.33800
H247        H  0.96098840  0.60322560  0.71807474     0.25600
H248        H  0.95580442  0.76711776  0.68853110     0.31600
H249        H  0.82348816  0.77611476  0.69423061     0.37500
H250        H  0.87546340  0.54107146  0.72952948     0.31900
H251        H  0.75930627  0.55894964  0.73535766     0.30800
H252        H  0.63988905  0.56068466  0.72795057     0.32500
H253        H  0.68999757  0.71052955  0.71279237     0.31500
H254        H  0.90852324  0.65149385  0.73382461     0.35500
H255        H  0.88681804  0.72921273  0.73724848     0.28200
H256        H  0.75858604  0.50187580  0.68889837     0.32400
H257        H  0.68888581  0.68354978  0.69295626     0.35300
H258        H  0.70089276  0.53523951  0.73513025     0.27900
H259        H  0.93330528  0.74473159  0.73183022     0.40800
H260        H  0.97576385  0.69929161  0.69383962     0.30800
H261        H  0.95312601  0.61658637  0.70948256     0.38400
H262        H  0.66404182  0.65252638  0.71122624     0.30300
H263        H  0.90911301  0.77506324  0.68904661     0.30300
H264        H  0.71977460  0.52064965  0.68782936     0.30600
Zr265      Zr  0.41426226  0.22482699  0.61242808     2.17500
O266        O  0.45384098  0.21099376  0.60092312    -0.51800
O267        O  0.48410836  0.30891255  0.61420341    -0.75000
O268        O  0.40377213  0.26501971  0.60069541    -0.81700
O269        O  0.46035174  0.15782383  0.62630744    -0.83500
O270        O  0.32713350  0.25962556  0.60079106    -0.79100
O271        O  0.48098944  0.20564784  0.61515105    -0.90700
O272        O  0.46544936  0.34350289  0.62454815    -0.76700
O273        O  0.37129437  0.26861099  0.61599554    -0.86200
O274        O  0.42546381  0.23771978  0.62631742    -0.85900
O275        O  0.32814180  0.17121276  0.60868921    -0.72600
O276        O  0.37907594  0.14292633  0.61824279    -0.84800
Zr277      Zr  0.25983452  0.14495081  0.63257503     2.26400
Zr278      Zr  0.28451822  0.21449789  0.61285260     2.06300
Zr279      Zr  0.38778863  0.15586343  0.63221736     2.10000
Zr280      Zr  0.38289604  0.28212653  0.62975045     1.78800
O281        O  0.36757448  0.07066665  0.63568968    -0.93600
O282        O  0.37297694  0.35366630  0.62612728    -0.41400
O283        O  0.34607789  0.20076647  0.63561393    -0.78000
O284        O  0.29491588  0.22820487  0.62683857    -0.96700
O285        O  0.24873701  0.13257140  0.61867269    -0.90000
O286        O  0.30157153  0.10006729  0.62893559    -0.92900
C287        C  0.49499795  0.34515059  0.61900117     1.00900
C288        C  0.48870676  0.17970767  0.62035694     1.13800
C289        C  0.37071368  0.27436983  0.59772489     1.04600
O290        O  0.28219494  0.29275058  0.61266746    -0.95000
O291        O  0.20276303  0.19855194  0.61797000    -0.90800
O292        O  0.19190989  0.16152518  0.63000278    -0.83900
C293        C  0.17754825  0.17922644  0.62437301     1.11200
O294        O  0.32691412  0.05968941  0.60471194    -0.97000
Zr295      Zr  0.29284177  0.09039479  0.61489985     1.88900
O296        O  0.19612402  0.05610513  0.63098142    -0.73600
O297        O  0.22839995  0.17287932  0.60176218    -0.52900
O298        O  0.24402460  0.06698835  0.60274375    -0.97600
O299        O  0.29820569  0.01628998  0.61857987    -0.54800
O300        O  0.20836509  0.03256656  0.61886698    -0.74200
C301        C  0.18209861  0.02571037  0.62507972     0.98200
O302        O  0.20658029  0.12945762  0.64417082    -0.63000
O303        O  0.45753083  0.18667898  0.64149354    -0.57800
O304        O  0.28901212  0.14942163  0.64622569    -0.94500
O305        O  0.36744450  0.15967859  0.64596901    -0.92900
O306        O  0.43707228  0.31082785  0.64131218    -0.93200
O307        O  0.34976806  0.30608077  0.64098772    -0.92000
C308        C  0.32948441  0.15654629  0.64966734     1.17000
H309        H  0.46062788  0.25643950  0.62771037     0.33000
H310        H  0.27704236  0.24478162  0.62867671     0.43800
H311        H  0.28750508  0.06827746  0.63167748     0.37400
H312        H  0.32578450  0.16687397  0.60302936     0.33800
H313        H  0.39452154  0.38050925  0.62989924     0.25600
H314        H  0.20195907  0.14029949  0.60391409     0.31600
H315        H  0.22101646  0.03024154  0.60318319     0.37500
H316        H  0.46559218  0.30570588  0.63995829     0.31900
H317        H  0.46721622  0.16035981  0.64173415     0.30800
H318        H  0.38782594  0.07464854  0.64046124     0.32500
H319        H  0.27063437  0.99771254  0.62241256     0.31500
H320        H  0.32218132  0.27382265  0.64304265     0.35500
H321        H  0.20676847  0.16140502  0.64517311     0.28200
H322        H  0.47970846  0.24509248  0.59919344     0.32400
H323        H  0.35998335  0.08908585  0.60339521     0.35300
H324        H  0.48605553  0.21567769  0.63885020     0.27900
H325        H  0.17189876  0.10552805  0.64244019     0.40800
H326        H  0.25504569  0.28657298  0.60890766     0.30800
H327        H  0.39050730  0.36534966  0.62099133     0.38400
H328        H  0.32929975  0.02948817  0.62174830     0.30300
H329        H  0.21122394  0.19251725  0.60085483     0.30300
H330        H  0.42818901  0.19863055  0.59669554     0.30600
Zr331      Zr  0.40417377  0.17870312  0.70059943     2.17500
O332        O  0.46127594  0.18185895  0.69027119    -0.51800
O333        O  0.46723508  0.26857887  0.70179972    -0.75000
O334        O  0.37924924  0.18787564  0.68712274    -0.81700
O335        O  0.46083464  0.12179124  0.71483984    -0.83500
O336        O  0.30041714  0.17695527  0.68749626    -0.79100
O337        O  0.47323291  0.16333592  0.70316680    -0.90700
O338        O  0.45028005  0.29496727  0.71329978    -0.76700
O339        O  0.36126907  0.22215123  0.70452665    -0.86200
O340        O  0.41548914  0.18959069  0.71456886    -0.85900
O341        O  0.31749762  0.12010926  0.69734768    -0.72600
O342        O  0.37180980  0.09608167  0.70644650    -0.84800
Zr343      Zr  0.25261685  0.09644411  0.72091881     2.26400
Zr344      Zr  0.27512717  0.16500572  0.70132825     2.06300
Zr345      Zr  0.38168866  0.10790454  0.72047877     2.10000
Zr346      Zr  0.37151079  0.23146580  0.71851495     1.78800
O347        O  0.38924676  0.03295942  0.72201400    -0.93600
O348        O  0.35698645  0.30105737  0.71550059    -0.41400
O349        O  0.33824159  0.15063466  0.72467257    -0.78000
O350        O  0.28521862  0.17866779  0.71528185    -0.96700
O351        O  0.24169518  0.08357429  0.70705104    -0.90000
O352        O  0.29575712  0.05296803  0.71718895    -0.92900
C353        C  0.47801463  0.30155323  0.70727336     1.00900
C354        C  0.48665583  0.14329210  0.70859982     1.13800
C355        C  0.33945270  0.18302851  0.68373908     1.04600
O356        O  0.29304859  0.25148986  0.70000503    -0.95000
O357        O  0.19381242  0.14520615  0.70684820    -0.90800
O358        O  0.18092026  0.10820750  0.71891766    -0.83900
C359        C  0.16759732  0.12610610  0.71315113     1.11200
O360        O  0.32652168  0.01652393  0.69346029    -0.97000
Zr361      Zr  0.28491887  0.04038436  0.70344085     1.88900
O362        O  0.18132644  0.01429396  0.71830019    -0.73600
O363        O  0.19987548  0.13978221  0.69343462    -0.52900
O364        O  0.23846451  0.00865960  0.69115006    -0.97600
O365        O  0.28542120  0.96607206  0.70843594    -0.54800
O366        O  0.19707200  0.98653660  0.70678607    -0.74200
C367        C  0.16813751  0.98331963  0.71250911     0.98200
O368        O  0.22736424  0.11838387  0.73328023    -0.63000
O369        O  0.44087242  0.15391206  0.73101802    -0.57800
O370        O  0.25991305  0.05269252  0.73224202    -0.94500
O371        O  0.33761634  0.06137289  0.73248933    -0.92900
O372        O  0.43296310  0.26362340  0.72914695    -0.93200
O373        O  0.34094467  0.25332040  0.73031428    -0.92000
C374        C  0.29314140  0.04456855  0.73538555     1.17000
H375        H  0.45072939  0.20963423  0.71586008     0.33000
H376        H  0.26680981  0.19457483  0.71717019     0.43800
H377        H  0.28220529  0.02077681  0.71979364     0.37400
H378        H  0.31233897  0.10940419  0.69193724     0.33800
H379        H  0.37461318  0.32613312  0.71972052     0.25600
H380        H  0.21097351  0.15780338  0.68833354     0.31600
H381        H  0.22406422  0.97170985  0.69141599     0.37500
H382        H  0.42793571  0.23328551  0.73200282     0.31900
H383        H  0.44218036  0.12765218  0.73424626     0.30800
H384        H  0.41601076  0.04238291  0.72600743     0.32500
H385        H  0.32143103  0.97620082  0.70878815     0.31500
H386        H  0.32249447  0.22139412  0.73329194     0.35500
H387        H  0.25572391  0.12787949  0.73696430     0.28200
H388        H  0.47176746  0.21343407  0.68730468     0.32400
H389        H  0.35583605  0.04872047  0.69176516     0.35300
H390        H  0.47412535  0.17193498  0.72840545     0.27900
H391        H  0.22910927  0.15083752  0.73210791     0.40800
H392        H  0.27138188  0.25479230  0.70402100     0.30800
H393        H  0.37716263  0.31688107  0.71069265     0.38400
H394        H  0.27227335  0.94157548  0.70403384     0.30300
H395        H  0.18714519  0.10390370  0.69217455     0.30300
H396        H  0.44054351  0.15436774  0.68654121     0.30600
Zr397      Zr  0.22010154  0.40396175  0.88778458     2.17500
O398        O  0.20107590  0.43368772  0.89996396    -0.51800
O399        O  0.30360236  0.47347648  0.88554024    -0.75000
O400        O  0.26497290  0.39495046  0.89892211    -0.81700
O401        O  0.15580612  0.45346331  0.87440614    -0.83500
O402        O  0.25134238  0.31489654  0.89931770    -0.79100
O403        O  0.20124453  0.47171099  0.88577731    -0.90700
O404        O  0.33539927  0.45263741  0.87496521    -0.76700
O405        O  0.25925096  0.35608591  0.88445385    -0.86200
O406        O  0.23438476  0.41468148  0.87388777    -0.85900
O407        O  0.16226218  0.31893055  0.89158235    -0.72600
O408        O  0.13989696  0.37331845  0.88171337    -0.84800
Zr409      Zr  0.13474577  0.25009562  0.86761782     2.26400
Zr410      Zr  0.20052965  0.27057670  0.88769574     2.06300
Zr411      Zr  0.15412187  0.38208096  0.86779885     2.10000
Zr412      Zr  0.27467029  0.36746383  0.87073334     1.78800
O413        O  0.07287880  0.36865137  0.86336917    -0.93600
O414        O  0.34451860  0.35797010  0.87547641    -0.41400
O415        O  0.19461555  0.33540477  0.86462520    -0.78000
O416        O  0.21644036  0.28048062  0.87372395    -0.96700
O417        O  0.12037586  0.23952227  0.88151576    -0.90000
O418        O  0.09447630  0.29676568  0.87110339    -0.92900
C419        C  0.33762842  0.48334762  0.88034359     1.00900
C420        C  0.17569738  0.48030600  0.88060834     1.13800
C421        C  0.27072329  0.35999983  0.90208150     1.04600
O422        O  0.26644827  0.24913425  0.88934212    -0.95000
O423        O  0.17556526  0.18640120  0.88280439    -0.90800
O424        O  0.15062717  0.18137331  0.87003709    -0.83900
C425        C  0.16117094  0.16360187  0.87612139     1.11200
O426        O  0.06219803  0.32512035  0.89630153    -0.97000
Zr427      Zr  0.08287865  0.28835036  0.88514953     1.88900
O428        O  0.04401444  0.18965301  0.86939169    -0.73600
O429        O  0.14984165  0.21726060  0.89856191    -0.52900
O430        O  0.05360322  0.23227403  0.89654508    -0.97600
O431        O  0.01857385  0.30989812  0.88187371    -0.54800
O432        O  0.01560414  0.21029246  0.88035735    -0.74200
C433        C  0.00949820  0.18139093  0.87451524     0.98200
O434        O  0.11815075  0.19744477  0.85592159    -0.63000
O435        O  0.19452021  0.45528702  0.85913122    -0.57800
O436        O  0.14483295  0.28164638  0.85389818    -0.94500
O437        O  0.15637812  0.36063209  0.85403505    -0.92900
O438        O  0.30306042  0.41386534  0.85837314    -0.93200
O439        O  0.30272174  0.32971758  0.86072400    -0.92000
C440        C  0.15326736  0.32251302  0.85036549     1.17000
H441        H  0.25401712  0.44957018  0.87238499     0.33000
H442        H  0.23173693  0.26110556  0.87202912     0.43800
H443        H  0.06319823  0.28484670  0.86830473     0.37400
H444        H  0.15756679  0.31723341  0.89723637     0.33800
H445        H  0.37488640  0.38720342  0.87325520     0.25600
H446        H  0.16884832  0.20121491  0.90053451     0.31600
H447        H  0.01647860  0.21491947  0.89627744     0.37500
H448        H  0.34017172  0.43253578  0.85876976     0.31900
H449        H  0.16998929  0.46716479  0.85860302     0.30800
H450        H  0.07634767  0.40254285  0.86341290     0.32500
H451        H  0.99712968  0.28501033  0.87785137     0.31500
H452        H  0.27135795  0.30332100  0.85825785     0.35500
H453        H  0.14992085  0.19762678  0.85480112     0.28200
H454        H  0.23397556  0.46012988  0.90199491     0.32400
H455        H  0.02548704  0.30388409  0.89708981     0.35300
H456        H  0.22247540  0.48180073  0.86223363     0.27900
H457        H  0.09438040  0.16262102  0.85762939     0.40800
H458        H  0.28660320  0.26114779  0.88443416     0.30800
H459        H  0.34655805  0.36476093  0.88122194     0.38400
H460        H  0.03675936  0.34204777  0.87894215     0.30300
H461        H  0.15282508  0.24078780  0.90281155     0.30300
H462        H  0.18984491  0.40552520  0.90376451     0.30600
Zr463      Zr  0.19324608  0.40028789  0.79904514     2.17500
O464        O  0.18853194  0.45549544  0.80899915    -0.51800
O465        O  0.28257625  0.46480921  0.79756781    -0.75000
O466        O  0.20188204  0.37927073  0.81279467    -0.81700
O467        O  0.14898964  0.45886353  0.78367464    -0.83500
O468        O  0.19357581  0.30160435  0.81304122    -0.79100
O469        O  0.17697562  0.46805260  0.79630142    -0.90700
O470        O  0.31630943  0.44203535  0.78756646    -0.76700
O471        O  0.23735464  0.35669845  0.79609862    -0.86200
O472        O  0.20944960  0.41057593  0.78518046    -0.85900
O473        O  0.13380736  0.31447791  0.80246109    -0.72600
O474        O  0.11276060  0.36570758  0.79249545    -0.84800
Zr475      Zr  0.11708962  0.24574203  0.77901765     2.26400
Zr476      Zr  0.17867026  0.27106453  0.79946890     2.06300
Zr477      Zr  0.13007305  0.37612073  0.77861876     2.10000
Zr478      Zr  0.25126650  0.36518420  0.78211079     1.78800
O479        O  0.06084693  0.39246378  0.77674513    -0.93600
O480        O  0.31723185  0.34590027  0.78530081    -0.41400
O481        O  0.17291940  0.33136231  0.77526554    -0.78000
O482        O  0.19671315  0.27978872  0.78558377    -0.96700
O483        O  0.09969956  0.23520435  0.79281617    -0.90000
O484        O  0.07356097  0.29006872  0.78196779    -0.92900
C485        C  0.31923985  0.47247301  0.79296429     1.00900
C486        C  0.16406834  0.48361262  0.79020782     1.13800
C487        C  0.19847957  0.34102250  0.81652679     1.04600
O488        O  0.25959298  0.27720739  0.80203987    -0.95000
O489        O  0.16749078  0.19256249  0.79435012    -0.90800
O490        O  0.13160053  0.17678585  0.78214821    -0.83900
C491        C  0.15111797  0.16622889  0.78802512     1.11200
O492        O  0.02435560  0.31932816  0.80452838    -0.97000
Zr493      Zr  0.05594849  0.27883048  0.79562974     1.88900
O494        O  0.03418404  0.17330773  0.78090765    -0.73600
O495        O  0.13629961  0.20103170  0.80868928    -0.52900
O496        O  0.03059818  0.23593010  0.80835477    -0.97600
O497        O  0.98128058  0.27886527  0.79072945    -0.54800
O498        O  0.00305135  0.19049105  0.79192350    -0.74200
C499        C  0.00117301  0.16074259  0.78639014     0.98200
O500        O  0.14458057  0.21917239  0.76733101    -0.63000
O501        O  0.17918071  0.42883846  0.76760026    -0.57800
O502        O  0.07757959  0.25255124  0.76698742    -0.94500
O503        O  0.08460164  0.32989817  0.76667339    -0.92900
O504        O  0.28469511  0.42633369  0.77139396    -0.93200
O505        O  0.27547884  0.33405982  0.77063750    -0.92000
C506        C  0.06948628  0.28578673  0.76371889     1.17000
H507        H  0.23029161  0.44567869  0.78382633     0.33000
H508        H  0.21374383  0.26172441  0.78409630     0.43800
H509        H  0.04233192  0.27650122  0.77911144     0.37400
H510        H  0.12336325  0.31096833  0.80790346     0.33800
H511        H  0.34694134  0.37087563  0.78229178     0.25600
H512        H  0.16308042  0.20300221  0.81217366     0.31600
H513        H  0.99483660  0.21006374  0.80768636     0.37500
H514        H  0.32159860  0.44101247  0.77168106     0.31900
H515        H  0.15653869  0.43845443  0.76492699     0.30800
H516        H  0.07339128  0.42006211  0.77281845     0.32500
H517        H  0.96403416  0.24881912  0.78730340     0.31500
H518        H  0.25599626  0.29695907  0.77110779     0.35500
H519        H  0.16053812  0.24936609  0.76390227     0.28200
H520        H  0.21942758  0.46852737  0.81222206     0.32400
H521        H  0.98972199  0.29319769  0.80594488     0.35300
H522        H  0.20535645  0.46033018  0.77006634     0.27900
H523        H  0.17305448  0.21505391  0.76909958     0.40800
H524        H  0.25740919  0.26586887  0.80757574     0.30800
H525        H  0.32574470  0.35617801  0.79088717     0.38400
H526        H  0.99419689  0.30781500  0.78705443     0.30300
H527        H  0.11570383  0.20990782  0.81211917     0.30300
H528        H  0.16054816  0.43350040  0.81257661     0.30600
Zr529      Zr  0.58207541  0.80330358  0.88802372     2.17500
O530        O  0.54556430  0.75011183  0.89962816    -0.51800
O531        O  0.51236843  0.81725327  0.88607057    -0.75000
O532        O  0.58892466  0.85072261  0.89992517    -0.81700
O533        O  0.53283072  0.69512834  0.87373185    -0.83500
O534        O  0.66290129  0.92453833  0.89974192    -0.79100
O535        O  0.51696451  0.71633820  0.88582256    -0.90700
O536        O  0.53127467  0.87234257  0.87596649    -0.76700
O537        O  0.62314425  0.89028213  0.88457157    -0.86200
O538        O  0.57124789  0.80584463  0.87410942    -0.85900
O539        O  0.66790789  0.83746007  0.89198572    -0.72600
O540        O  0.61821458  0.75750115  0.88216233    -0.84800
Zr541      Zr  0.73688320  0.88173299  0.86814821     2.26400
Zr542      Zr  0.70961696  0.92411688  0.88801204     2.06300
Zr543      Zr  0.60979164  0.76254974  0.86820844     2.10000
Zr544      Zr  0.61297347  0.89296733  0.87075913     1.78800
O545        O  0.62700276  0.69406731  0.86591345    -0.93600
O546        O  0.62489048  0.97522532  0.87433435    -0.41400
O547        O  0.65058667  0.84928893  0.86485994    -0.78000
O548        O  0.70035545  0.92849657  0.87398522    -0.96700
O549        O  0.74704265  0.87985660  0.88208711    -0.90000
O550        O  0.69615440  0.79467583  0.87163854    -0.92900
C551        C  0.50182118  0.84343957  0.88140216     1.00900
C552        C  0.50661965  0.68541021  0.88006076     1.13800
C553        C  0.62011464  0.89374678  0.90286861     1.04600
O554        O  0.71896044  0.00682909  0.89001631    -0.95000
O555        O  0.79002391  0.99158333  0.88297698    -0.90800
O556        O  0.80176479  0.96768002  0.87081576    -0.83900
C557        C  0.81512563  0.99921128  0.87652504     1.11200
O558        O  0.66926787  0.73886650  0.89718409    -0.97000
Zr559      Zr  0.70441892  0.79338201  0.88571141     1.88900
O560        O  0.80190294  0.85774217  0.86982807    -0.73600
O561        O  0.76579858  0.93451504  0.89890758    -0.52900
O562        O  0.75949090  0.81781633  0.89716301    -0.97600
O563        O  0.69725059  0.71239037  0.88259746    -0.54800
O564        O  0.78800769  0.81786079  0.88161700    -0.74200
C565        C  0.81496586  0.83884860  0.87552851     0.98200
O566        O  0.79204135  0.92175430  0.85682998    -0.63000
O567        O  0.54378408  0.72422275  0.85826419    -0.57800
O568        O  0.70676739  0.85939412  0.85443033    -0.94500
O569        O  0.63401197  0.78479815  0.85448299    -0.92900
O570        O  0.55676764  0.86807701  0.85943619    -0.93200
O571        O  0.64465285  0.94869106  0.85934893    -0.92000
C572        C  0.66925830  0.82277249  0.85085088     1.17000
H573        H  0.53612155  0.78925637  0.87266315     0.33000
H574        H  0.71735805  0.96304311  0.87220291     0.43800
H575        H  0.71063584  0.77729674  0.86888464     0.37400
H576        H  0.66967526  0.83484096  0.89764284     0.33800
H577        H  0.60009231  0.97892771  0.87109304     0.25600
H578        H  0.77097891  0.96522687  0.90166913     0.31600
H579        H  0.78362780  0.85404222  0.89636826     0.37500
H580        H  0.54542102  0.83194235  0.85867227     0.31900
H581        H  0.53166898  0.68765051  0.85849972     0.30800
H582        H  0.59493603  0.66310756  0.86712189     0.32500
H583        H  0.71919467  0.71866653  0.87794526     0.31500
H584        H  0.66681009  0.93871616  0.85658421     0.35500
H585        H  0.79188643  0.95359455  0.85590809     0.28200
H586        H  0.52004773  0.75805051  0.90167367     0.32400
H587        H  0.63527950  0.73459281  0.89781194     0.35300
H588        H  0.51559121  0.72794413  0.86031909     0.27900
H589        H  0.82646307  0.93220863  0.85868430     0.40800
H590        H  0.70448441  0.01282133  0.88519566     0.30800
H591        H  0.61184045  0.97105858  0.87979870     0.38400
H592        H  0.66268237  0.69162055  0.88055154     0.30300
H593        H  0.74528270  0.90682114  0.90262538     0.30300
H594        H  0.57237614  0.76297401  0.90367489     0.30600
Zr595      Zr  0.59284725  0.77126196  0.79963281     2.17500
O596        O  0.54131784  0.71265113  0.81000261    -0.51800
O597        O  0.52863057  0.79673029  0.79835032    -0.75000
O598        O  0.61376499  0.80458828  0.81317267    -0.81700
O599        O  0.53851420  0.66300828  0.78500441    -0.83500
O600        O  0.69215467  0.87250144  0.81332895    -0.79100
O601        O  0.52276227  0.68914791  0.79669557    -0.90700
O602        O  0.54643153  0.84275096  0.78708055    -0.76700
O603        O  0.63759935  0.85863918  0.79655983    -0.86200
O604        O  0.58277178  0.77638611  0.78573350    -0.85900
O605        O  0.67828200  0.79649789  0.80305139    -0.72600
O606        O  0.62668165  0.72346763  0.79326273    -0.84800
Zr607      Zr  0.74722392  0.84597785  0.77951055     2.26400
Zr608      Zr  0.72302066  0.88443861  0.79984369     2.06300
Zr609      Zr  0.61664639  0.73037538  0.77934068     2.10000
Zr610      Zr  0.62874957  0.86351021  0.78260382     1.78800
O611        O  0.59715502  0.64669920  0.77508488    -0.93600
O612        O  0.63630346  0.94291422  0.78691576    -0.41400
O613        O  0.66175448  0.81751332  0.77573463    -0.78000
O614        O  0.71410192  0.89299527  0.78597844    -0.96700
O615        O  0.75789520  0.83990239  0.79328906    -0.90000
O616        O  0.70215768  0.75858315  0.78267202    -0.92900
C617        C  0.51797353  0.81947221  0.79293793     1.00900
C618        C  0.51122998  0.65681788  0.79115287     1.13800
C619        C  0.65210980  0.83954001  0.81681965     1.04600
O620        O  0.72146097  0.96182930  0.80241537    -0.95000
O621        O  0.80304396  0.95053690  0.79488659    -0.90800
O622        O  0.81850230  0.92812799  0.78282933    -0.83900
C623        C  0.83026291  0.95879932  0.78868602     1.11200
O624        O  0.67483759  0.68003135  0.80507341    -0.97000
Zr625      Zr  0.71358699  0.75294815  0.79633750     1.88900
O626        O  0.81691522  0.83082689  0.78124151    -0.73600
O627        O  0.78922874  0.90396846  0.80943712    -0.52900
O628        O  0.75812250  0.77305141  0.80891231    -0.97600
O629        O  0.71678035  0.68002246  0.79125146    -0.54800
O630        O  0.80151147  0.78673572  0.79270272    -0.74200
C631        C  0.82992515  0.81183045  0.78688598     0.98200
O632        O  0.77427164  0.90177666  0.76809331    -0.63000
O633        O  0.55813267  0.72901115  0.76952216    -0.57800
O634        O  0.74075706  0.79834084  0.76760144    -0.94500
O635        O  0.66245713  0.72964440  0.76744738    -0.92900
O636        O  0.57788203  0.84584803  0.77073318    -0.93200
O637        O  0.67006122  0.93131133  0.77301303    -0.92000
C638        C  0.70654954  0.75729398  0.76444112     1.17000
H639        H  0.54774429  0.76170946  0.78432977     0.33000
H640        H  0.73292032  0.92797079  0.78445194     0.43800
H641        H  0.71522314  0.74026722  0.77982460     0.37400
H642        H  0.68138709  0.79036806  0.80854933     0.33800
H643        H  0.60636639  0.94281240  0.78471873     0.25600
H644        H  0.78849993  0.92914629  0.81302031     0.31600
H645        H  0.78982639  0.80489654  0.80794554     0.37500
H646        H  0.59302763  0.83303110  0.76686492     0.31900
H647        H  0.57492498  0.73221939  0.76438477     0.30800
H648        H  0.62753800  0.64463326  0.77636385     0.32500
H649        H  0.74348292  0.69317235  0.78717324     0.31500
H650        H  0.68059931  0.91674712  0.76869880     0.35500
H651        H  0.74548709  0.88612559  0.76440254     0.28200
H652        H  0.52778895  0.73019844  0.81322818     0.32400
H653        H  0.70284810  0.67656925  0.80727097     0.35300
H654        H  0.52982576  0.69393636  0.76960053     0.27900
H655        H  0.77447678  0.93256491  0.76992782     0.40800
H656        H  0.74332533  0.97663926  0.80708937     0.30800
H657        H  0.63025616  0.93925981  0.79268638     0.38400
H658        H  0.68510936  0.66061855  0.78826349     0.30300
H659        H  0.77705565  0.87332011  0.81271288     0.30300
H660        H  0.56485360  0.70852629  0.81350115     0.30600
Zr661      Zr  0.18440073  0.77306184  0.88786958     2.17500
O662        O  0.23705430  0.79383134  0.89959703    -0.51800
O663        O  0.17315440  0.68970842  0.88583382    -0.75000
O664        O  0.13446124  0.72853074  0.89929959    -0.81700
O665        O  0.29585985  0.83948820  0.87422978    -0.83500
O666        O  0.06166036  0.73064676  0.89908839    -0.79100
O667        O  0.27158857  0.79667788  0.88584728    -0.90700
O668        O  0.11303080  0.65086560  0.87648354    -0.76700
O669        O  0.09790275  0.72794461  0.88442938    -0.86200
O670        O  0.18307170  0.75941413  0.87401567    -0.85900
O671        O  0.15055570  0.82574388  0.89171226    -0.72600
O672        O  0.22917733  0.85469994  0.88195851    -0.84800
Zr673      Zr  0.10583210  0.84872843  0.86777689     2.26400
Zr674      Zr  0.06409044  0.78105305  0.88769757     2.06300
Zr675      Zr  0.22550807  0.84115252  0.86806316     2.10000
Zr676      Zr  0.09617117  0.71385214  0.87068979     1.78800
O677        O  0.29215436  0.92690308  0.86546731    -0.93600
O678        O  0.01319599  0.64304850  0.87359814    -0.41400
O679        O  0.13885791  0.79483333  0.86470020    -0.78000
O680        O  0.05990777  0.76601392  0.87371581    -0.96700
O681        O  0.10821550  0.86215794  0.88166487    -0.90000
O682        O  0.19261230  0.89527711  0.87127921    -0.92900
C683        C  0.14420335  0.65136494  0.88159497     1.00900
C684        C  0.30452355  0.82185826  0.88053011     1.13800
C685        C  0.09113339  0.71653542  0.90212683     1.04600
O686        O  0.97944079  0.70862512  0.88792125    -0.95000
O687        O  0.00537643  0.80865198  0.88356495    -0.90800
O688        O  0.02078372  0.83005322  0.87064828    -0.83900
C689        C  0.99506130  0.82238488  0.87697300     1.11200
O690        O  0.25681091  0.93126786  0.89577257    -0.97000
Zr691      Zr  0.19416760  0.90623673  0.88533965     1.88900
O692        O  0.12921440  0.93755768  0.86936017    -0.73600
O693        O  0.04920813  0.81885836  0.89932228    -0.52900
O694        O  0.16613333  0.93084925  0.89714447    -0.97600
O695        O  0.27117917  0.98309315  0.88174060    -0.54800
O696        O  0.16695654  0.96351196  0.88131728    -0.74200
C697        C  0.14645342  0.96901721  0.87513616     0.98200
O698        O  0.06025436  0.85632879  0.85652533    -0.63000
O699        O  0.26592771  0.81240507  0.85861326    -0.57800
O700        O  0.13082576  0.84427165  0.85407237    -0.94500
O701        O  0.20306818  0.84104359  0.85431769    -0.92900
O702        O  0.13036536  0.68775416  0.85987163    -0.93200
O703        O  0.04349104  0.68868561  0.85894648    -0.92000
C704        C  0.16635796  0.84058130  0.85061050     1.17000
H705        H  0.19990308  0.74094322  0.87263533     0.33000
H706        H  0.02546335  0.74899572  0.87193019     0.43800
H707        H  0.20962275  0.92673452  0.86843309     0.37400
H708        H  0.15299078  0.83021109  0.89738051     0.33800
H709        H  0.01092872  0.61495822  0.87039275     0.25600
H710        H  0.02185146  0.79032680  0.90223489     0.31600
H711        H  0.18341799  0.96806988  0.89695052     0.37500
H712        H  0.15696804  0.71964187  0.85754828     0.31900
H713        H  0.30234844  0.83680554  0.85896832     0.30800
H714        H  0.31469892  0.92331593  0.86166463     0.32500
H715        H  0.26349620  0.99510755  0.87679271     0.31500
H716        H  0.05148609  0.72078612  0.85634730     0.35500
H717        H  0.02939171  0.82315054  0.85594356     0.28200
H718        H  0.23260108  0.76135031  0.90152442     0.32400
H719        H  0.26642727  0.96636113  0.89713117     0.35300
H720        H  0.26200831  0.78086478  0.86088019     0.27900
H721        H  0.04851540  0.87983318  0.85813836     0.40800
H722        H  0.96987000  0.70019435  0.88231239     0.30800
H723        H  0.01539285  0.63371207  0.87912326     0.38400
H724        H  0.29484842  0.97160667  0.88013100     0.30300
H725        H  0.07923568  0.82999152  0.90269049     0.30300
H726        H  0.22065984  0.80424451  0.90363207     0.30600
Zr727      Zr  0.22063336  0.79906629  0.79984327     2.17500
O728        O  0.27576506  0.79294672  0.80959112    -0.51800
O729        O  0.19451122  0.70932455  0.79802241    -0.75000
O730        O  0.18915859  0.79290072  0.81352680    -0.81700
O731        O  0.32720756  0.84652923  0.78484200    -0.83500
O732        O  0.11720767  0.79669397  0.81312945    -0.79100
O733        O  0.30707491  0.81987846  0.79754057    -0.90700
O734        O  0.14755364  0.68135400  0.78688221    -0.76700
O735        O  0.13376276  0.75714980  0.79645098    -0.86200
O736        O  0.21646717  0.78461528  0.78592468    -0.85900
O737        O  0.19448839  0.85922282  0.80313127    -0.72600
O738        O  0.26976489  0.88033257  0.79358317    -0.84800
Zr739      Zr  0.14724384  0.87940860  0.77953310     2.26400
Zr740      Zr  0.10695902  0.81636123  0.79964586     2.06300
Zr741      Zr  0.26370885  0.86469344  0.77964429     2.10000
Zr742      Zr  0.12994043  0.74427358  0.78247013     1.78800
O743        O  0.34748977  0.93685700  0.77792476    -0.93600
O744        O  0.04991333  0.67327738  0.78671685    -0.41400
O745        O  0.17688852  0.82325311  0.77584094    -0.78000
O746        O  0.09888825  0.79903030  0.78576457    -0.96700
O747        O  0.15323846  0.89612500  0.79332108    -0.90000
O748        O  0.23440265  0.92152774  0.78283210    -0.92900
C749        C  0.17110450  0.67594264  0.79263552     1.00900
C750        C  0.33646805  0.83293304  0.79153486     1.13800
C751        C  0.15222891  0.79448637  0.81691673     1.04600
O752        O  0.03092777  0.73605400  0.80189552    -0.95000
O753        O  0.04186396  0.83183946  0.79462125    -0.90800
O754        O  0.06337962  0.86611872  0.78230580    -0.83900
C755        C  0.03317320  0.84882956  0.78823645     1.11200
O756        O  0.30603905  0.96956902  0.80652028    -0.97000
Zr757      Zr  0.24010533  0.93768801  0.79652489     1.88900
O758        O  0.16098112  0.96307147  0.78170578    -0.73600
O759        O  0.08260630  0.86150123  0.80887245    -0.52900
O760        O  0.21933756  0.96819536  0.80845843    -0.97600
O761        O  0.31907464  0.00782238  0.79174726    -0.54800
O762        O  0.21394532  0.99598695  0.79211104    -0.74200
C763        C  0.18570967  0.99805748  0.78673645     0.98200
O764        O  0.09589215  0.85747774  0.76760634    -0.63000
O765        O  0.27577001  0.81857193  0.76896571    -0.57800
O766        O  0.19666974  0.91919292  0.76775110    -0.94500
O767        O  0.26507953  0.90907568  0.76753297    -0.92900
O768        O  0.15492983  0.71533269  0.77082869    -0.93200
O769        O  0.06803778  0.71648634  0.77189785    -0.92000
C770        C  0.23738385  0.92540589  0.76452520     1.17000
H771        H  0.23117795  0.76414002  0.78455363     0.33000
H772        H  0.06414296  0.78284190  0.78413755     0.43800
H773        H  0.25286462  0.95292750  0.78002072     0.37400
H774        H  0.20010006  0.86980321  0.80856789     0.33800
H775        H  0.04694564  0.64401577  0.78376327     0.25600
H776        H  0.05770293  0.83549175  0.81245919     0.31600
H777        H  0.18824262  0.96883854  0.80714512     0.37500
H778        H  0.18869636  0.72057244  0.77208251     0.31900
H779        H  0.24885522  0.81198630  0.76512989     0.30800
H780        H  0.36618377  0.92383701  0.77488449     0.32500
H781        H  0.30987598  0.02447680  0.78758949     0.31500
H782        H  0.07846114  0.74689238  0.76862564     0.35500
H783        H  0.11227526  0.84571623  0.76378397     0.28200
H784        H  0.25623519  0.75860055  0.81179920     0.32400
H785        H  0.31761273  0.00593892  0.80703443     0.35300
H786        H  0.30709451  0.84377028  0.76632259     0.27900
H787        H  0.06422276  0.82650477  0.76897678     0.40800
H788        H  0.01623680  0.72480213  0.79657276     0.30800
H789        H  0.05534083  0.66685832  0.79226297     0.38400
H790        H  0.33567249  0.99189725  0.78888908     0.30300
H791        H  0.11265381  0.88164408  0.81218233     0.30300
H792        H  0.27944563  0.81597067  0.81397094     0.30600
Zr793      Zr  0.52014629  0.44344392  0.55418549     2.17500
O794        O  0.57023383  0.46303063  0.56619778    -0.51800
O795        O  0.50859223  0.36045165  0.55222473    -0.75000
O796        O  0.46850825  0.40057476  0.56567036    -0.81700
O797        O  0.63132398  0.50789720  0.54061260    -0.83500
O798        O  0.39619844  0.40398929  0.56530382    -0.79100
O799        O  0.60690617  0.46425373  0.55215198    -0.90700
O800        O  0.46083184  0.32896045  0.54117721    -0.76700
O801        O  0.43367463  0.39993195  0.55060446    -0.86200
O802        O  0.51920081  0.43112558  0.54023934    -0.85900
O803        O  0.48780865  0.49720324  0.55798848    -0.72600
O804        O  0.56745678  0.52505645  0.54828208    -0.84800
Zr805      Zr  0.44613118  0.52410103  0.53417657     2.26400
Zr806      Zr  0.40178360  0.45472387  0.55385304     2.06300
Zr807      Zr  0.56313016  0.51266537  0.53432423     2.10000
Zr808      Zr  0.43235357  0.38680892  0.53684234     1.78800
O809        O  0.63025493  0.59740697  0.53119383    -0.93600
O810        O  0.35491615  0.31334905  0.54124485    -0.19800
O811        O  0.47655418  0.46821291  0.53098297    -0.78000
O812        O  0.39821869  0.44075959  0.53990940    -0.96700
O813        O  0.44844375  0.53638800  0.54810713    -0.90000
O814        O  0.53284983  0.56861322  0.53775213    -0.92900
C815        C  0.48774807  0.32700986  0.54684642     1.00900
C816        C  0.63977077  0.48907700  0.54679329     1.13800
C817        C  0.42543089  0.39017622  0.56847784     1.04600
O818        O  0.31571502  0.38519596  0.55429234    -0.95000
O819        O  0.34249979  0.48043337  0.54924493    -0.90800
O820        O  0.35933510  0.50183301  0.53630290    -0.83900
C821        C  0.33231749  0.49287035  0.54252085     1.11200
O822        O  0.59145700  0.59367334  0.56291371    -0.97000
Zr823      Zr  0.53455609  0.57789301  0.55186187     1.88900
O824        O  0.47210842  0.61361139  0.53610043    -0.73600
O825        O  0.39332771  0.49534450  0.56564923    -0.52900
O826        O  0.51005413  0.60627386  0.56362387    -0.97600
O827        O  0.61575789  0.65172739  0.54889406    -0.54800
O828        O  0.51238980  0.63877142  0.54785500    -0.74200
C829        C  0.49163545  0.64540279  0.54180559     0.98200
O830        O  0.40526848  0.54868113  0.52419051    -0.63000
O831        O  0.60350192  0.48301644  0.52503832    -0.57800
O832        O  0.46772109  0.51308401  0.52046420    -0.94500
O833        O  0.53979789  0.50958514  0.52052532    -0.92900
O834        O  0.45356587  0.36243240  0.52435049    -0.93200
O835        O  0.36710780  0.35808051  0.52679059    -0.92000
C836        C  0.50241186  0.50829827  0.51691456     1.17000
H837        H  0.53630679  0.41310277  0.53875616     0.33000
H838        H  0.36370420  0.42397780  0.53813556     0.43800
H839        H  0.55055120  0.60030427  0.53498564     0.37400
H840        H  0.48959954  0.50123759  0.56365904     0.33800
H841        H  0.35230937  0.28521465  0.53801150     0.25600
H842        H  0.38670749  0.52182743  0.56364379     0.31600
H843        H  0.47578507  0.60000435  0.56248598     0.37500
H844        H  0.44022811  0.32574478  0.52484683     0.31900
H845        H  0.63949801  0.50910813  0.52506694     0.30800
H846        H  0.66029816  0.60046004  0.53387517     0.32500
H847        H  0.61525303  0.67969133  0.55174765     0.31500
H848        H  0.37636434  0.38824971  0.52351438     0.35500
H849        H  0.43288942  0.57826121  0.52152262     0.28200
H850        H  0.56216456  0.43011121  0.56849251     0.32400
H851        H  0.60755279  0.63014355  0.56404286     0.35300
H852        H  0.60219621  0.45327533  0.52757663     0.27900
H853        H  0.39128967  0.52162971  0.52017266     0.40800
H854        H  0.31731332  0.35677648  0.55181181     0.30800
H855        H  0.36214177  0.30625346  0.54664384     0.38400
H856        H  0.61437317  0.65932235  0.54325068     0.30300
H857        H  0.36110034  0.46999411  0.56804442     0.30300
H858        H  0.55542503  0.47710533  0.56990597     0.30600
Zr859      Zr  0.54629656  0.46058669  0.46596007     2.17500
O860        O  0.59981863  0.45214739  0.47577599    -0.51800
O861        O  0.51900048  0.37111705  0.46428878    -0.75000
O862        O  0.51877099  0.45621040  0.47987262    -0.81700
O863        O  0.65297819  0.51248631  0.45077002    -0.83500
O864        O  0.44601716  0.45840080  0.47977967    -0.79100
O865        O  0.63172182  0.48066719  0.46319560    -0.90700
O866        O  0.46102718  0.33727382  0.45449594    -0.76700
O867        O  0.45903812  0.41844774  0.46294103    -0.86200
O868        O  0.53935315  0.44393455  0.45206297    -0.85900
O869        O  0.52177401  0.52159081  0.46938770    -0.72600
O870        O  0.59402014  0.54079522  0.45934334    -0.84800
Zr871      Zr  0.46988593  0.54062254  0.44619601     2.26400
Zr872      Zr  0.43389434  0.47847795  0.46639437     2.06300
Zr873      Zr  0.58470031  0.52320704  0.44543078     2.10000
Zr874      Zr  0.45240003  0.40431735  0.44895632     1.78800
O875        O  0.66892781  0.58775802  0.44159493    -0.93600
O876        O  0.36652688  0.33993762  0.45211441    -0.41400
O877        O  0.49727137  0.48307892  0.44214252    -0.78000
O878        O  0.42337335  0.46046420  0.45254264    -0.96700
O879        O  0.47862905  0.55813434  0.45995084    -0.90000
O880        O  0.55765044  0.58159931  0.44891666    -0.92900
C881        C  0.48885603  0.33449471  0.45982618     1.00900
C882        C  0.66208202  0.49708702  0.45732022     1.13800
C883        C  0.48202799  0.45720636  0.48341832     1.04600
O884        O  0.35676247  0.40027373  0.46921683    -0.95000
O885        O  0.36691209  0.49109658  0.46156587    -0.90800
O886        O  0.38796187  0.52939409  0.44957490    -0.83900
C887        C  0.35759131  0.50955430  0.45542455     1.11200
O888        O  0.62950080  0.62638811  0.47290977    -0.97000
Zr889      Zr  0.56632716  0.59942678  0.46253430     1.88900
O890        O  0.48807927  0.62666480  0.44785579    -0.73600
O891        O  0.41639718  0.52731306  0.47591089    -0.52900
O892        O  0.54956465  0.63722775  0.47397054    -0.97600
O893        O  0.64659077  0.66476166  0.45726947    -0.54800
O894        O  0.54377096  0.66042900  0.45789890    -0.74200
C895        C  0.51539375  0.66287289  0.45257560     0.98200
O896        O  0.41254833  0.51648443  0.43497068    -0.63000
O897        O  0.58307097  0.46610512  0.43526743    -0.57800
O898        O  0.51508128  0.57901910  0.43415959    -0.94500
O899        O  0.58409497  0.57001267  0.43365187    -0.92900
O900        O  0.48165882  0.37443854  0.43792259    -0.93200
O901        O  0.39556555  0.37680161  0.43768383    -0.92000
C902        C  0.55581448  0.58645655  0.43086136     1.17000
H903        H  0.55318537  0.42272312  0.45066275     0.33000
H904        H  0.38833762  0.44436934  0.45108198     0.43800
H905        H  0.57584047  0.61288178  0.44605906     0.37400
H906        H  0.52830032  0.53244255  0.47481396     0.33800
H907        H  0.36438915  0.30767766  0.45062469     0.25600
H908        H  0.39440196  0.50283073  0.47994820     0.31600
H909        H  0.51575871  0.63275788  0.47302040     0.37500
H910        H  0.46707310  0.33786408  0.43882221     0.31900
H911        H  0.57208623  0.47590905  0.43041455     0.30800
H912        H  0.67608101  0.57490010  0.43668135     0.32500
H913        H  0.63828835  0.68535234  0.45374339     0.31500
H914        H  0.40877874  0.40665439  0.43419281     0.35500
H915        H  0.42897600  0.50822875  0.43064594     0.28200
H916        H  0.57808663  0.42012352  0.47857372     0.32400
H917        H  0.64802534  0.66363499  0.47272275     0.35300
H918        H  0.61883516  0.47686178  0.43430109     0.27900
H919        H  0.38361970  0.48345331  0.43645869     0.40800
H920        H  0.33461974  0.41088666  0.47181596     0.30800
H921        H  0.36511138  0.33915043  0.45795825     0.38400
H922        H  0.65793217  0.64692127  0.45366968     0.30300
H923        H  0.44873499  0.54856059  0.47863321     0.30300
H924        H  0.60849547  0.47900572  0.47974171     0.30600
Zr925      Zr  0.56694633  0.08337249  0.55447440     2.17500
O926        O  0.55535043  0.12433187  0.56599365    -0.51800
O927        O  0.65304311  0.14938636  0.55246176    -0.75000
O928        O  0.60276257  0.07015421  0.56648246    -0.81700
O929        O  0.51204535  0.13683923  0.54029241    -0.83500
O930        O  0.59183018  0.99129894  0.56665253    -0.79100
O931        O  0.54780202  0.15074567  0.55246534    -0.90700
O932        O  0.68655885  0.12613396  0.54252293    -0.76700
O933        O  0.60486447  0.03382356  0.55153801    -0.86200
O934        O  0.58440596  0.09374517  0.54064604    -0.85900
O935        O  0.50576002  0.99907248  0.55817068    -0.72600
O936        O  0.48823118  0.05486896  0.54788615    -0.84800
Zr937      Zr  0.48210241  0.92879381  0.53433233     2.26400
Zr938      Zr  0.54344492  0.94918702  0.55476964     2.06300
Zr939      Zr  0.50574521  0.06280286  0.53405307     2.10000
Zr940      Zr  0.62230184  0.04395733  0.53781768     1.78800
O941        O  0.42631656  0.05324807  0.52940215    -0.93600
O942        O  0.68893828  0.02833737  0.54216545    -0.41400
O943        O  0.54393693  0.01350657  0.53131155    -0.78000
O944        O  0.56207642  0.95783320  0.54087915    -0.96700
O945        O  0.46470456  0.91944968  0.54816196    -0.90000
O946        O  0.44343532  0.97796423  0.53717173    -0.92900
C947        C  0.68925088  0.15763321  0.54777543     1.00900
C948        C  0.52768022  0.16196552  0.54674362     1.13800
C949        C  0.60851473  0.03531986  0.56969270     1.04600
O950        O  0.60831214  0.92680578  0.55679072    -0.95000
O951        O  0.51929449  0.86469411  0.55016763    -0.90800
O952        O  0.49362819  0.85762403  0.53742711    -0.83900
C953        C  0.50393488  0.84037647  0.54362411     1.11200
O954        O  0.40238440  0.00947886  0.56118218    -0.97000
Zr955      Zr  0.42837307  0.97029970  0.55112594     1.88900
O956        O  0.39139560  0.86833111  0.53583406    -0.73600
O957        O  0.49212310  0.89859979  0.56578899    -0.52900
O958        O  0.39542328  0.91899711  0.56296376    -0.97600
O959        O  0.36130453  0.98559661  0.54681946    -0.54800
O960        O  0.36322860  0.89015354  0.54668011    -0.74200
C961        C  0.35707592  0.86044091  0.54096422     0.98200
O962        O  0.47132481  0.87758959  0.52265633    -0.63000
O963        O  0.54921142  0.13498173  0.52526317    -0.57800
O964        O  0.49122664  0.95940875  0.52054792    -0.94500
O965        O  0.50872381  0.04065597  0.52037079    -0.92900
O966        O  0.65245456  0.09346669  0.52575236    -0.93200
O967        O  0.64604174  0.00480604  0.52742822    -0.92000
C968        C  0.50250300  0.00075991  0.51688425     1.17000
H969        H  0.60566923  0.12862108  0.53920870     0.33000
H970        H  0.57676838  0.93754330  0.53938466     0.43800
H971        H  0.41314593  0.96664492  0.53411765     0.37400
H972        H  0.49953328  0.99737575  0.56378455     0.33800
H973        H  0.71871909  0.05191804  0.53903328     0.25600
H974        H  0.46434361  0.86832043  0.56329462     0.31600
H975        H  0.39483895  0.88717294  0.56169833     0.37500
H976        H  0.65534184  0.12629008  0.52706480     0.31900
H977        H  0.52469803  0.14631071  0.52419236     0.30800
H978        H  0.42429968  0.08158880  0.53182798     0.32500
H979        H  0.34756896  0.96569744  0.54192713     0.31500
H980        H  0.61503366  0.98552061  0.52427509     0.35500
H981        H  0.50237745  0.87538356  0.52226207     0.28200
H982        H  0.58957833  0.14761887  0.56798419     0.32400
H983        H  0.43299741  0.04199086  0.56231578     0.35300
H984        H  0.57572846  0.16214096  0.52848940     0.27900
H985        H  0.44455899  0.84312560  0.52402540     0.40800
H986        H  0.63048218  0.94058451  0.55211675     0.30800
H987        H  0.69680732  0.04170650  0.54761999     0.38400
H988        H  0.37874815  0.02106993  0.54503010     0.30300
H989        H  0.51284079  0.88634956  0.56840697     0.30300
H990        H  0.53949878  0.09791521  0.57009284     0.30600
Zr991      Zr  0.52258234  0.06695136  0.46550569     2.17500
O992        O  0.51138079  0.11838455  0.47541866    -0.51800
O993        O  0.61244245  0.13110843  0.46464875    -0.75000
O994        O  0.53352406  0.04498715  0.47913135    -0.81700
O995        O  0.46572789  0.12028899  0.45091389    -0.83500
O996        O  0.52331925  0.96620245  0.47905086    -0.79100
O997        O  0.50973723  0.13656431  0.46241121    -0.90700
O998        O  0.64356867  0.11458399  0.45362320    -0.76700
O999        O  0.56878201  0.02662188  0.46184626    -0.86200
O1000       O  0.53550270  0.07901295  0.45158387    -0.85900
O1001       O  0.46570313  0.98009322  0.46877377    -0.72600
O1002       O  0.44049820  0.03073906  0.45936003    -0.84800
Zr1003     Zr  0.44702870  0.91367315  0.44532475     2.26400
Zr1004     Zr  0.51326597  0.94007353  0.46522026     2.06300
Zr1005     Zr  0.45470950  0.04183807  0.44539303     2.10000
Zr1006     Zr  0.57977603  0.03741213  0.44783855     1.78800
O1007       O  0.38254341  0.05279837  0.44300480    -0.93600
O1008       O  0.64716941  0.01913597  0.45034668    -0.41400
O1009       O  0.49941601  0.99999656  0.44149055    -0.78000
O1010       O  0.52869321  0.95103778  0.45125923    -0.96700
O1011       O  0.43258941  0.90262134  0.45914942    -0.90000
O1012       O  0.40136235  0.95524221  0.44871262    -0.92900
C1013       C  0.64818602  0.14162014  0.45966999     1.00900
C1014       C  0.48791530  0.14764403  0.45697828     1.13800
C1015       C  0.52884356  0.00555175  0.48267594     1.04600
O1016       O  0.59644867  0.95365690  0.46838352    -0.95000
O1017       O  0.50928022  0.86563107  0.45947483    -0.90800
O1018       O  0.46441964  0.84580777  0.44805486    -0.83900
C1019       C  0.48906629  0.83747155  0.45340697     1.11200
O1020       O  0.35632515  0.98419682  0.47153385    -0.97000
Zr1021     Zr  0.38635553  0.94322587  0.46241623     1.88900
O1022       O  0.36597347  0.83928486  0.44774985    -0.73600
O1023       O  0.47246023  0.86191058  0.47273826    -0.52900
O1024       O  0.36038021  0.89959554  0.47506091    -0.97600
O1025       O  0.30838472  0.93653865  0.45757613    -0.54800
O1026       O  0.33562999  0.85435087  0.45904599    -0.74200
C1027       C  0.33403553  0.82528891  0.45343699     0.98200
O1028       O  0.47626938  0.89007387  0.43355844    -0.63000
O1029       O  0.50447102  0.10175636  0.43510952    -0.57800
O1030       O  0.40314700  0.91837756  0.43368364    -0.94500
O1031       O  0.40989727  0.99569569  0.43341659    -0.92900
O1032       O  0.61020830  0.10029475  0.43734890    -0.93200
O1033       O  0.60560734  0.01413448  0.43566510    -0.92000
C1034       C  0.39465799  0.95148939  0.43048230     1.17000
H1035       H  0.55506759  0.11441715  0.45033646     0.33000
H1036       H  0.54654540  0.93441353  0.44945616     0.43800
H1037       H  0.36963733  0.94084274  0.44596586     0.37400
H1038       H  0.45515918  0.97563106  0.47420979     0.33800
H1039       H  0.67837614  0.05076140  0.44904604     0.25600
H1040       H  0.48733792  0.87032050  0.47808788     0.31600
H1041       H  0.32349228  0.87789089  0.47462231     0.37500
H1042       H  0.64725331  0.11584268  0.43747338     0.31900
H1043       H  0.48087096  0.11037787  0.43250925     0.30800
H1044       H  0.39173846  0.07466234  0.43827528     0.32500
H1045       H  0.29428638  0.90811080  0.45379762     0.31500
H1046       H  0.59064423  0.97715825  0.43598088     0.35500
H1047       H  0.48842056  0.91958417  0.43001394     0.28200
H1048       H  0.54129128  0.13188447  0.47888104     0.32400
H1049       H  0.32086654  0.95908659  0.47268915     0.35300
H1050       H  0.52821165  0.13283421  0.43795891     0.27900
H1051       H  0.50735951  0.89035511  0.43519800     0.40800
H1052       H  0.59248639  0.93768997  0.47361932     0.30800
H1053       H  0.64802037  0.01645443  0.45616390     0.38400
H1054       H  0.31903273  0.96685909  0.45427209     0.30300
H1055       H  0.43737445  0.85443656  0.47341329     0.30300
H1056       H  0.48296898  0.09437939  0.47875299     0.30600
Zr1057     Zr  0.92448919  0.48451027  0.55416385     2.17500
O1058       O  0.88482991  0.43157446  0.56568711    -0.51800
O1059       O  0.85280496  0.49535124  0.55168073    -0.75000
O1060       O  0.93139893  0.53499108  0.56579046    -0.81700
O1061       O  0.88247568  0.37258680  0.54042901    -0.83500
O1062       O  0.00549043  0.60870816  0.56540342    -0.79100
O1063       O  0.86550880  0.39489823  0.55232132    -0.90700
O1064       O  0.87400287  0.55379582  0.54204354    -0.76700
O1065       O  0.96469143  0.57077700  0.55041599    -0.86200
O1066       O  0.91386819  0.48501367  0.54023547    -0.85900
O1067       O  0.01068543  0.52090295  0.55810253    -0.72600
O1068       O  0.96358659  0.44073506  0.54855848    -0.84800
Zr1069     Zr  0.08117279  0.56275708  0.53416201     2.26400
Zr1070     Zr  0.05159442  0.60691149  0.55370674     2.06300
Zr1071     Zr  0.95474657  0.44328291  0.53455332     2.10000
Zr1072     Zr  0.95458705  0.57161321  0.53661126     1.78800
O1073       O  0.97617807  0.37825438  0.53175226    -0.93600
O1074       O  0.97084453  0.65587965  0.53986494    -0.41400
O1075       O  0.99454489  0.52939321  0.53100079    -0.78000
O1076       O  0.04274272  0.60878190  0.53963721    -0.96700
O1077       O  0.09138438  0.56376466  0.54813673    -0.90000
O1078       O  0.04107640  0.47661070  0.53809449    -0.92900
C1079       C  0.84320611  0.52323704  0.54719874     1.00900
C1080       C  0.85703233  0.36253817  0.54684042     1.13800
C1081       C  0.96263550  0.57866458  0.56858310     1.04600
O1082       O  0.05324703  0.68704712  0.55365696    -0.95000
O1083       O  0.13440644  0.67205942  0.54901530    -0.90800
O1084       O  0.14734661  0.64819556  0.53692448    -0.83900
C1085       C  0.16060025  0.67942114  0.54268424     1.11200
O1086       O  0.02047672  0.42186964  0.56353894    -0.97000
Zr1087     Zr  0.04984558  0.47829330  0.55219905     1.88900
O1088       O  0.14487285  0.53656482  0.53581150    -0.73600
O1089       O  0.10444374  0.62400124  0.56531348    -0.52900
O1090       O  0.10227588  0.51697797  0.56374776    -0.97600
O1091       O  0.04943229  0.39931536  0.55007271    -0.54800
O1092       O  0.13278987  0.50154289  0.54799176    -0.74200
C1093       C  0.15842865  0.51932082  0.54169137     0.98200
O1094       O  0.13427561  0.60256008  0.52263058    -0.63000
O1095       O  0.88580588  0.40217332  0.52512810    -0.57800
O1096       O  0.05175658  0.53870109  0.52043366    -0.94500
O1097       O  0.97668231  0.46646487  0.52077654    -0.92900
O1098       O  0.89322559  0.53801081  0.52598020    -0.93200
O1099       O  0.97901251  0.62088512  0.52448106    -0.92000
C1100       C  0.01279166  0.50289501  0.51699957     1.17000
H1101       H  0.87890464  0.46772948  0.53876054     0.33000
H1102       H  0.05975726  0.64309271  0.53774633     0.43800
H1103       H  0.05573229  0.45887263  0.53550444     0.37400
H1104       H  0.01274689  0.51963974  0.56378616     0.33800
H1105       H  0.95049812  0.66270695  0.53606182     0.25600
H1106       H  0.13569062  0.62604769  0.56329324     0.31600
H1107       H  0.11636003  0.49503712  0.56508671     0.37500
H1108       H  0.89864611  0.51184170  0.52348938     0.31900
H1109       H  0.87704856  0.36640739  0.52500730     0.30800
H1110       H  0.95509789  0.35977099  0.52716115     0.32500
H1111       H  0.06678369  0.40341850  0.54496052     0.31500
H1112       H  0.00142940  0.61111913  0.52174812     0.35500
H1113       H  0.13323609  0.63397485  0.52173030     0.28200
H1114       H  0.86145822  0.44225564  0.56778367     0.32400
H1115       H  0.98529854  0.41390633  0.56431769     0.35300
H1116       H  0.85659599  0.40202730  0.52764549     0.27900
H1117       H  0.16908459  0.61381257  0.52436246     0.40800
H1118       H  0.06563618  0.70127707  0.55897373     0.30800
H1119       H  0.95400195  0.65212062  0.54501752     0.38400
H1120       H  0.01387535  0.37436327  0.54896901     0.30300
H1121       H  0.11439072  0.65898253  0.56680670     0.30300
H1122       H  0.91174475  0.44263459  0.56969346     0.30600
Zr1123     Zr  0.92226567  0.44563404  0.46603338     2.17500
O1124       O  0.85989037  0.39972507  0.47630412    -0.51800
O1125       O  0.86164277  0.47560502  0.46406367    -0.75000
O1126       O  0.94901042  0.47893352  0.47958522    -0.81700
O1127       O  0.86517093  0.33317342  0.45201387    -0.83500
O1128       O  0.02668744  0.54795121  0.47927915    -0.79100
O1129       O  0.85607525  0.35871876  0.46422169    -0.90700
O1130       O  0.88449861  0.52763458  0.45351056    -0.76700
O1131       O  0.96952335  0.53206012  0.46241742    -0.86200
O1132       O  0.91156265  0.44828094  0.45207248    -0.85900
O1133       O  0.00761986  0.46825996  0.46930905    -0.72600
O1134       O  0.95221350  0.39393588  0.45985165    -0.84800
Zr1135     Zr  0.07455537  0.51155644  0.44558066     2.26400
Zr1136     Zr  0.05455252  0.55551571  0.46565511     2.06300
Zr1137     Zr  0.94250781  0.39869879  0.44585531     2.10000
Zr1138     Zr  0.96012106  0.53450246  0.44840971     1.78800
O1139       O  0.92492040  0.31474846  0.44223176    -0.93600
O1140       O  0.98638456  0.62178199  0.45153058    -0.41400
O1141       O  0.98965016  0.48476280  0.44188734    -0.78000
O1142       O  0.04513909  0.56231580  0.45176911    -0.96700
O1143       O  0.08511757  0.50649854  0.45939069    -0.90000
O1144       O  0.02770752  0.42470215  0.44903124    -0.92900
C1145       C  0.85453373  0.50366811  0.45915020     1.00900
C1146       C  0.84168102  0.32614963  0.45862580     1.13800
C1147       C  0.98780787  0.51499125  0.48302183     1.04600
O1148       O  0.05156888  0.63268032  0.46755318    -0.95000
O1149       O  0.13521917  0.61657847  0.46004720    -0.90800
O1150       O  0.14908938  0.59240646  0.44804145    -0.83900
C1151       C  0.16194411  0.62370182  0.45380382     1.11200
O1152       O  0.00120981  0.35828928  0.47333444    -0.97000
Zr1153     Zr  0.03839892  0.42009883  0.46274519     1.88900
O1154       O  0.14349139  0.49596633  0.44751043    -0.73600
O1155       O  0.12452658  0.58190966  0.47481609    -0.52900
O1156       O  0.09278145  0.43996668  0.47424816    -0.97600
O1157       O  0.02348356  0.33834778  0.45812270    -0.54800
O1158       O  0.12356765  0.44575691  0.45834487    -0.74200
C1159       C  0.15411338  0.47329841  0.45287789     0.98200
O1160       O  0.09867117  0.56638582  0.43407365    -0.63000
O1161       O  0.88586496  0.39797243  0.43574505    -0.57800
O1162       O  0.06495939  0.46255220  0.43381327    -0.94500
O1163       O  0.98601324  0.39513569  0.43378777    -0.92900
O1164       O  0.89689556  0.51125477  0.43811169    -0.93200
O1165       O  0.99275179  0.58639260  0.43659123    -0.92000
C1166       C  0.02996681  0.42210747  0.43066931     1.17000
H1167       H  0.87658910  0.43495734  0.45076010     0.33000
H1168       H  0.06484796  0.59685768  0.45006395     0.43800
H1169       H  0.03972688  0.40523553  0.44625621     0.37400
H1170       H  0.01210490  0.46280777  0.47478290     0.33800
H1171       H  0.96945550  0.63202417  0.44758152     0.25600
H1172       H  0.12691378  0.61136576  0.47762784     0.31600
H1173       H  0.11806644  0.47604242  0.47363732     0.37500
H1174       H  0.89380576  0.54159444  0.43727270     0.31900
H1175       H  0.89441748  0.38536201  0.43093876     0.30800
H1176       H  0.90071327  0.30481484  0.43781232     0.32500
H1177       H  0.05059595  0.34585565  0.45426439     0.31500
H1178       H  0.99435651  0.56386183  0.43255156     0.35500
H1179       H  0.07043743  0.54885594  0.43032575     0.28200
H1180       H  0.85248373  0.42454870  0.47880275     0.32400
H1181       H  0.02413434  0.34464661  0.47411456     0.35300
H1182       H  0.85233403  0.37030671  0.43732002     0.27900
H1183       H  0.09596436  0.59576947  0.43583385     0.40800
H1184       H  0.06252239  0.65042958  0.46242418     0.30800
H1185       H  0.96933123  0.62021423  0.45657974     0.38400
H1186       H  0.99251807  0.32484603  0.45490606     0.30300
H1187       H  0.11305068  0.55508617  0.47886571     0.30300
H1188       H  0.87703580  0.39089357  0.48043097     0.30600
Zr1189     Zr  0.13630862  0.23632929  0.27839629     2.17500
O1190       O  0.08563897  0.19870496  0.26662266    -0.51800
O1191       O  0.15069096  0.16674943  0.28061148    -0.75000
O1192       O  0.18908704  0.24825646  0.26691168    -0.81700
O1193       O  0.02777567  0.18275428  0.29252821    -0.83500
O1194       O  0.25873527  0.32589141  0.26708877    -0.79100
O1195       O  0.04912506  0.17073839  0.28018439    -0.90700
O1196       O  0.20245365  0.18616760  0.29117581    -0.76700
O1197       O  0.22264890  0.28158454  0.28203889    -0.86200
O1198       O  0.13840342  0.22460301  0.29229998    -0.85900
O1199       O  0.16571447  0.32185783  0.27459466    -0.72600
O1200       O  0.08758778  0.26854944  0.28441010    -0.84800
Zr1201     Zr  0.20680854  0.39071516  0.29864662     2.26400
Zr1202     Zr  0.25159179  0.36783466  0.27882720     2.06300
Zr1203     Zr  0.09290819  0.26005079  0.29836305     2.10000
Zr1204     Zr  0.22490081  0.26979094  0.29581377     1.78800
O1205       O  0.02189646  0.27198435  0.30135832    -0.93600
O1206       O  0.30565388  0.27919039  0.29193201    -0.41400
O1207       O  0.17942254  0.30509933  0.30184002    -0.78000
O1208       O  0.25642176  0.35750316  0.29279312    -0.96700
O1209       O  0.20355303  0.40077265  0.28474930    -0.90000
O1210       O  0.12019495  0.34572885  0.29500533    -0.92900
C1211       C  0.17473859  0.15612033  0.28571281     1.00900
C1212       C  0.01845793  0.15807882  0.28603534     1.13800
C1213       C  0.23129334  0.28218401  0.26402221     1.04600
O1214       O  0.33760275  0.38501277  0.27735323    -0.95000
O1215       O  0.31138576  0.45178835  0.28354502    -0.90800
O1216       O  0.29173088  0.45885837  0.29622759    -0.83900
C1217       C  0.31988489  0.47587716  0.29009795     1.11200
O1218       O  0.06700253  0.32021428  0.26899497    -0.97000
Zr1219     Zr  0.11771786  0.35396365  0.28091568     1.88900
O1220       O  0.17504942  0.44986895  0.29702389    -0.73600
O1221       O  0.25818205  0.42322543  0.26802722    -0.52900
O1222       O  0.14775650  0.41672297  0.27038507    -0.97600
O1223       O  0.03050844  0.32909372  0.28368427    -0.54800
O1224       O  0.12607823  0.43026860  0.28608345    -0.74200
C1225       C  0.14857497  0.45833374  0.29199945     0.98200
O1226       O  0.25078884  0.45411836  0.30884285    -0.63000
O1227       O  0.05744479  0.19206837  0.30803739    -0.57800
O1228       O  0.18496118  0.35919712  0.31236919    -0.94500
O1229       O  0.11575086  0.28189526  0.31214356    -0.92900
O1230       O  0.19680999  0.21872364  0.30777807    -0.93200
O1231       O  0.28706988  0.29864901  0.30634281    -0.92000
C1232       C  0.15116430  0.31911202  0.31587102     1.17000
H1233       H  0.12248634  0.18952020  0.29376661     0.33000
H1234       H  0.29088136  0.37613823  0.29455547     0.43800
H1235       H  0.10091031  0.35787538  0.29780973     0.37400
H1236       H  0.16355438  0.32402832  0.26892210     0.33800
H1237       H  0.30049003  0.24461853  0.29188377     0.25600
H1238       H  0.29310740  0.43722597  0.26611220     0.31600
H1239       H  0.12313508  0.42862037  0.27012218     0.37500
H1240       H  0.17255271  0.22689469  0.31027433     0.31900
H1241       H  0.02077323  0.17916149  0.30797583     0.30800
H1242       H  0.01411101  0.26219114  0.30697923     0.32500
H1243       H  0.02379934  0.35218535  0.28050601     0.31500
H1244       H  0.27788627  0.31861545  0.30986676     0.35500
H1245       H  0.22441362  0.45440523  0.31218653     0.28200
H1246       H  0.09682099  0.17577820  0.26449433     0.32400
H1247       H  0.05291464  0.34234086  0.26780097     0.35300
H1248       H  0.06162936  0.16468171  0.30573208     0.27900
H1249       H  0.26759314  0.44077630  0.31226952     0.40800
H1250       H  0.34980646  0.38674936  0.28281910     0.30800
H1251       H  0.30983695  0.28921084  0.28630178     0.38400
H1252       H  0.03027252  0.33935431  0.28921966     0.30300
H1253       H  0.23724424  0.40060918  0.26373234     0.30300
H1254       H  0.09727773  0.22636992  0.26272167     0.30600
Zr1255     Zr  0.10143330  0.23885203  0.36717650     2.17500
O1256       O  0.04761438  0.18000408  0.35704738    -0.51800
O1257       O  0.12725856  0.17502736  0.36875980    -0.75000
O1258       O  0.13393558  0.26226977  0.35354470    -0.81700
O1259       O  0.99508573  0.18268943  0.38221544    -0.83500
O1260       O  0.20425594  0.33906038  0.35351426    -0.79100
O1261       O  0.01497054  0.17459003  0.36955961    -0.90700
O1262       O  0.18167788  0.19661598  0.37900507    -0.76700
O1263       O  0.18790054  0.28099450  0.37074691    -0.86200
O1264       O  0.10400995  0.22740326  0.38110187    -0.85900
O1265       O  0.12967424  0.32515118  0.36372677    -0.72600
O1266       O  0.05439183  0.27382460  0.37334437    -0.84800
Zr1267     Zr  0.17770652  0.39324563  0.38728787     2.26400
Zr1268     Zr  0.21688285  0.36700182  0.36724103     2.06300
Zr1269     Zr  0.05944431  0.26375284  0.38731600     2.10000
Zr1270     Zr  0.18996913  0.27151292  0.38478118     1.78800
O1271       O  0.97478007  0.24913584  0.38951842    -0.93600
O1272       O  0.27637715  0.29100910  0.38273974    -0.41400
O1273       O  0.14585788  0.30747180  0.39126066    -0.78000
O1274       O  0.22267125  0.35692529  0.38119999    -0.96700
O1275       O  0.17327378  0.40433695  0.37343154    -0.90000
O1276       O  0.09073615  0.34988709  0.38386009    -0.92900
C1277       C  0.15595481  0.16723976  0.37339828     1.00900
C1278       C  0.98586191  0.15909995  0.37559488     1.13800
C1279       C  0.16998103  0.30015294  0.34992202     1.04600
O1280       O  0.28868560  0.35668949  0.36414763    -0.95000
O1281       O  0.28674028  0.44157932  0.37285228    -0.90800
O1282       O  0.26458657  0.45950863  0.38471100    -0.83900
C1283       C  0.29664631  0.46825629  0.37914707     1.11200
O1284       O  0.02410494  0.32687025  0.35961206    -0.97000
Zr1285     Zr  0.08633932  0.36102745  0.37016818     1.88900
O1286       O  0.16447112  0.46355143  0.38524345    -0.73600
O1287       O  0.24684846  0.44021935  0.35865775    -0.52900
O1288       O  0.11051318  0.41351475  0.35834888    -0.97600
O1289       O  0.00629908  0.35268911  0.37426098    -0.54800
O1290       O  0.11176589  0.44522344  0.37483102    -0.74200
C1291       C  0.13965200  0.47455375  0.38034475     0.98200
O1292       O  0.22899914  0.42449481  0.39919972    -0.63000
O1293       O  0.05450694  0.20924409  0.39816718    -0.57800
O1294       O  0.12692303  0.38617793  0.39882808    -0.94500
O1295       O  0.05677738  0.30911711  0.39905775    -0.92900
O1296       O  0.15637485  0.21059999  0.39554048    -0.93200
O1297       O  0.24508774  0.29975995  0.39626438    -0.92000
C1298       C  0.08494775  0.35333957  0.40195268     1.17000
H1299       H  0.08893503  0.19212808  0.38240516     0.33000
H1300       H  0.25718710  0.37357902  0.38294776     0.43800
H1301       H  0.07257865  0.36369447  0.38654631     0.37400
H1302       H  0.12399919  0.32977767  0.35827995     0.33800
H1303       H  0.27622193  0.25917859  0.38382337     0.25600
H1304       H  0.27170770  0.43858354  0.35511926     0.31600
H1305       H  0.14379519  0.44271655  0.35960368     0.37500
H1306       H  0.18076549  0.19864056  0.39619572     0.31900
H1307       H  0.02198977  0.19939544  0.40076585     0.30800
H1308       H  0.96014437  0.22213805  0.39354681     0.32500
H1309       H  0.01381024  0.37442745  0.37896982     0.31500
H1310       H  0.24182091  0.32798812  0.39843843     0.35500
H1311       H  0.21064229  0.39877316  0.40331184     0.28200
H1312       H  0.06888821  0.16988581  0.35405404     0.32400
H1313       H  0.01321804  0.35195398  0.35872309     0.35300
H1314       H  0.04933843  0.17797514  0.39560526     0.27900
H1315       H  0.25901969  0.42128998  0.39814434     0.40800
H1316       H  0.30822473  0.38333181  0.36021766     0.30800
H1317       H  0.28170650  0.29588949  0.37696632     0.38400
H1318       H  0.98671447  0.31792695  0.37632550     0.30300
H1319       H  0.21802433  0.43281492  0.35519220     0.30300
H1320       H  0.03986325  0.20002780  0.35329896     0.30600
Zr1321     Zr  0.10301422  0.83760600  0.27934940     2.17500
O1322       O  0.12567845  0.89036044  0.26757834    -0.51800
O1323       O  0.02006661  0.82598930  0.28134118    -0.75000
O1324       O  0.05740814  0.78633970  0.26800541    -0.81700
O1325       O  0.16625365  0.94719196  0.29359823    -0.83500
O1326       O  0.06219900  0.71481556  0.26813589    -0.79100
O1327       O  0.12514950  0.92448101  0.28183324    -0.90700
O1328       O  0.98232723  0.76510814  0.29064311    -0.76700
O1329       O  0.06017537  0.75024586  0.28240746    -0.86200
O1330       O  0.08621546  0.83199067  0.29319034    -0.85900
O1331       O  0.15867026  0.80745511  0.27551417    -0.72600
O1332       O  0.18271350  0.88305265  0.28570992    -0.84800
Zr1333     Zr  0.18073701  0.76030074  0.29943578     2.26400
Zr1334     Zr  0.11634221  0.72031174  0.27915949     2.06300
Zr1335     Zr  0.16610923  0.87559037  0.29955057     2.10000
Zr1336     Zr  0.04324365  0.74418961  0.29606995     1.78800
O1337       O  0.24756755  0.94346392  0.30384933    -0.93600
O1338       O  0.97889926  0.66149766  0.29150853    -0.41400
O1339       O  0.12267658  0.78822573  0.30247788    -0.78000
O1340       O  0.09923458  0.71253592  0.29312355    -0.96700
O1341       O  0.19630101  0.76519082  0.28554984    -0.90000
O1342       O  0.22418286  0.84770153  0.29628549    -0.92900
C1343       C  0.98226802  0.79663493  0.28563626     1.00900
C1344       C  0.14931567  0.95665936  0.28730996     1.13800
C1345       C  0.04603495  0.74292972  0.26520874     1.04600
O1346       O  0.05110402  0.63455461  0.27621446    -0.95000
O1347       O  0.13241938  0.65473467  0.28400628    -0.90800
O1348       O  0.16330730  0.67580749  0.29648619    -0.83900
C1349       C  0.14837815  0.64619718  0.29052209     1.11200
O1350       O  0.26382240  0.91760406  0.27222559    -0.97000
Zr1351     Zr  0.23756044  0.85222265  0.28227843     1.88900
O1352       O  0.27087527  0.78772385  0.29819405    -0.73600
O1353       O  0.16732206  0.72167137  0.26801690    -0.52900
O1354       O  0.26674120  0.83032116  0.27031667    -0.97600
O1355       O  0.30808556  0.93223880  0.28658187    -0.54800
O1356       O  0.29748755  0.82881913  0.28649356    -0.74200
C1357       C  0.30328188  0.80761656  0.29257460     0.98200
O1358       O  0.19685299  0.72196011  0.31087707    -0.63000
O1359       O  0.12825306  0.90999496  0.30845926    -0.57800
O1360       O  0.16971997  0.77961656  0.31323389    -0.94500
O1361       O  0.16273015  0.84976542  0.31315265    -0.92900
O1362       O  0.00971806  0.76429045  0.30768397    -0.93200
O1363       O  0.01085101  0.68469595  0.30701298    -0.92000
C1364       C  0.16386768  0.81364748  0.31678711     1.17000
H1365       H  0.06664250  0.84748959  0.29465732     0.33000
H1366       H  0.08255305  0.67760733  0.29470693     0.43800
H1367       H  0.25510467  0.86563797  0.29922130     0.37400
H1368       H  0.16405066  0.81091377  0.26987209     0.33800
H1369       H  0.94835431  0.65436345  0.29450948     0.25600
H1370       H  0.18731055  0.70695745  0.27009993     0.31600
H1371       H  0.30369423  0.84686564  0.27088330     0.37500
H1372       H  0.03973883  0.79025825  0.31050132     0.31900
H1373       H  0.15426842  0.94568139  0.30921839     0.30800
H1374       H  0.25173225  0.93413230  0.30927891     0.32500
H1375       H  0.32707683  0.92351266  0.29037342     0.31500
H1376       H  0.03484738  0.67216594  0.30754494     0.35500
H1377       H  0.16500948  0.69031844  0.31188214     0.28200
H1378       H  0.09342174  0.88478020  0.26538124     0.32400
H1379       H  0.29971437  0.92929471  0.27116819     0.35300
H1380       H  0.10147495  0.91118871  0.30537873     0.27900
H1381       H  0.22055698  0.71103437  0.30903744     0.40800
H1382       H  0.02024017  0.63145465  0.27860719     0.30800
H1383       H  0.97155919  0.66691030  0.28601757     0.38400
H1384       H  0.29272549  0.94780672  0.28985423     0.30300
H1385       H  0.14308708  0.69591086  0.26433948     0.30300
H1386       H  0.13779952  0.87440278  0.26373775     0.30600
Zr1387     Zr  0.13193999  0.86722155  0.36763299     2.17500
O1388       O  0.12951899  0.92288076  0.35753761    -0.51800
O1389       O  0.04118217  0.83544596  0.36900364    -0.75000
O1390       O  0.12115132  0.83366795  0.35410737    -0.81700
O1391       O  0.19102636  0.98099227  0.38135482    -0.83500
O1392       O  0.12617784  0.76237320  0.35440847    -0.79100
O1393       O  0.14593513  0.95098000  0.37002871    -0.90700
O1394       O  0.01362943  0.79198760  0.38047798    -0.76700
O1395       O  0.08853191  0.78166390  0.37169749    -0.86200
O1396       O  0.12177953  0.86841217  0.38159710    -0.85900
O1397       O  0.18962575  0.83859148  0.36414835    -0.72600
O1398       O  0.21563527  0.91549554  0.37317852    -0.84800
Zr1399     Zr  0.21452649  0.79561753  0.38779723     2.26400
Zr1400     Zr  0.14465285  0.75205722  0.36807105     2.06300
Zr1401     Zr  0.20407013  0.91507221  0.38719376     2.10000
Zr1402     Zr  0.08078529  0.78306845  0.38576751     1.78800
O1403       O  0.27689093  0.99808997  0.38923755    -0.93600
O1404       O  0.01292963  0.69692534  0.38375547    -0.41400
O1405       O  0.16211710  0.82942939  0.39163963    -0.78000
O1406       O  0.13231125  0.74897364  0.38211919    -0.96700
O1407       O  0.22618155  0.79632385  0.37389725    -0.90000
O1408       O  0.25779630  0.88189689  0.38388822    -0.92900
C1409       C  0.00688283  0.81107527  0.37421815     1.00900
C1410       C  0.16830548  0.98524549  0.37525340     1.13800
C1411       C  0.12232503  0.79672713  0.35065885     1.04600
O1412       O  0.06103469  0.67991265  0.36620539    -0.95000
O1413       O  0.15502750  0.68559891  0.37373373    -0.90800
O1414       O  0.19661044  0.70973978  0.38546380    -0.83900
C1415       C  0.17363943  0.67736335  0.37996107     1.11200
O1416       O  0.29619401  0.94191205  0.35923047    -0.97000
Zr1417     Zr  0.27012521  0.88205503  0.37013693     1.88900
O1418       O  0.29525664  0.80254621  0.38517715    -0.73600
O1419       O  0.18341801  0.71952669  0.35899435    -0.52900
O1420       O  0.29110523  0.85014953  0.35839695    -0.97600
O1421       O  0.34550397  0.96022443  0.37373975    -0.54800
O1422       O  0.32690533  0.85237314  0.37435657    -0.74200
C1423       C  0.32870301  0.82395817  0.37979208     0.98200
O1424       O  0.19302953  0.74551445  0.39987617    -0.63000
O1425       O  0.15368616  0.92435420  0.39747109    -0.57800
O1426       O  0.25806716  0.84785307  0.39920679    -0.94500
O1427       O  0.25139502  0.91845191  0.39911060    -0.92900
O1428       O  0.05377958  0.81711868  0.39649680    -0.93200
O1429       O  0.06142274  0.73206972  0.39768543    -0.92000
C1430       C  0.26707546  0.89025913  0.40218599     1.17000
H1431       H  0.10188002  0.88382193  0.38292639     0.33000
H1432       H  0.11525556  0.71470209  0.38401519     0.43800
H1433       H  0.29005324  0.90037426  0.38645379     0.37400
H1434       H  0.19877011  0.84318583  0.35864034     0.33800
H1435       H  0.98579574  0.69289452  0.38737541     0.25600
H1436       H  0.15510538  0.69178835  0.35611871     0.31600
H1437       H  0.32826731  0.86750863  0.35829711     0.37500
H1438       H  0.01803168  0.79181703  0.39738636     0.31900
H1439       H  0.14832299  0.89842822  0.40144431     0.30800
H1440       H  0.26549020  0.01472629  0.39307222     0.32500
H1441       H  0.36124915  0.95123268  0.37806846     0.31500
H1442       H  0.09391697  0.74565191  0.40047887     0.35500
H1443       H  0.18461792  0.76414394  0.40380206     0.28200
H1444       H  0.09741409  0.90280954  0.35468259     0.32400
H1445       H  0.33213464  0.95323863  0.35830663     0.35300
H1446       H  0.17683697  0.95668570  0.40006830     0.27900
H1447       H  0.16034801  0.71506292  0.39876762     0.40800
H1448       H  0.06638840  0.65645790  0.36286595     0.30800
H1449       H  0.99982051  0.69686800  0.37841150     0.38400
H1450       H  0.33278081  0.98073505  0.37630793     0.30300
H1451       H  0.20099892  0.74625740  0.35498942     0.30300
H1452       H  0.15609952  0.92863596  0.35366990     0.30600
Zr1453     Zr  0.73423093  0.86873326  0.27916470     2.17500
O1454       O  0.76420849  0.84767092  0.26721131    -0.51800
O1455       O  0.80625743  0.95126915  0.28098913    -0.75000
O1456       O  0.72616603  0.91375751  0.26793014    -0.81700
O1457       O  0.78534200  0.80925339  0.29296271    -0.83500
O1458       O  0.64814737  0.90487378  0.26767006    -0.79100
O1459       O  0.80085954  0.84916687  0.28109019    -0.90700
O1460       O  0.79008979  0.98397634  0.29192583    -0.76700
O1461       O  0.69149735  0.91248243  0.28284566    -0.86200
O1462       O  0.74700926  0.88175107  0.29306584    -0.85900
O1463       O  0.64832570  0.81499775  0.27547118    -0.72600
O1464       O  0.69994593  0.78737062  0.28515609    -0.84800
Zr1465     Zr  0.58135809  0.79033026  0.29957127     2.26400
Zr1466     Zr  0.60496797  0.85808852  0.27963386     2.06300
Zr1467     Zr  0.70986853  0.80060845  0.29907965     2.10000
Zr1468     Zr  0.70489816  0.92643215  0.29658821     1.78800
O1469       O  0.69269435  0.71521533  0.30158227    -0.93600
O1470       O  0.70290676  0.00197003  0.29271887    -0.41400
O1471       O  0.66791700  0.84542070  0.30254010    -0.78000
O1472       O  0.61667005  0.87334246  0.29362480    -0.96700
O1473       O  0.56974496  0.77703935  0.28568378    -0.90000
O1474       O  0.62325787  0.74534346  0.29593345    -0.92900
C1475       C  0.81874469  0.98538664  0.28625726     1.00900
C1476       C  0.81109810  0.82695951  0.28660434     1.13800
C1477       C  0.69267856  0.92196637  0.26482878     1.04600
O1478       O  0.59461607  0.93108413  0.27766885    -0.95000
O1479       O  0.52273557  0.83925205  0.28471226    -0.90800
O1480       O  0.51604843  0.81173709  0.29736242    -0.83900
C1481       C  0.49946850  0.82450606  0.29136838     1.11200
O1482       O  0.65237488  0.70760203  0.27190615    -0.97000
Zr1483     Zr  0.61374439  0.73482123  0.28187441     1.88900
O1484       O  0.51599209  0.70128369  0.29761689    -0.73600
O1485       O  0.54704775  0.80879041  0.26912930    -0.52900
O1486       O  0.56746371  0.71268570  0.26946968    -0.97600
O1487       O  0.61547233  0.65851934  0.28541676    -0.54800
O1488       O  0.52891477  0.67681147  0.28560237    -0.74200
C1489       C  0.50244229  0.67002889  0.29179238     0.98200
O1490       O  0.52754419  0.77267423  0.31115015    -0.63000
O1491       O  0.77698669  0.82749358  0.30881355    -0.57800
O1492       O  0.61341267  0.79785706  0.31320362    -0.94500
O1493       O  0.68960615  0.80287933  0.31288511    -0.92900
O1494       O  0.75431428  0.94949311  0.30868644    -0.93200
O1495       O  0.67241052  0.95598803  0.30719595    -0.92000
C1496       C  0.65312300  0.80258885  0.31663726     1.17000
H1497       H  0.78214977  0.89974115  0.29446869     0.33000
H1498       H  0.59935506  0.89057787  0.29542343     0.43800
H1499       H  0.60938488  0.71384294  0.29875799     0.37400
H1500       H  0.64610735  0.81054622  0.26981193     0.33800
H1501       H  0.73363618  0.03002094  0.29507012     0.25600
H1502       H  0.53678642  0.83176462  0.26673905     0.31600
H1503       H  0.55076622  0.67552187  0.26921170     0.37500
H1504       H  0.75332627  0.91815494  0.31042152     0.31900
H1505       H  0.78977683  0.80366108  0.30831634     0.30800
H1506       H  0.71040510  0.71758670  0.30658606     0.32500
H1507       H  0.59267090  0.63285680  0.28159050     0.31500
H1508       H  0.65237925  0.92587659  0.31052472     0.35500
H1509       H  0.52969749  0.80505753  0.31254454     0.28200
H1510       H  0.78770084  0.88035524  0.26472270     0.32400
H1511       H  0.67227735  0.73776254  0.26858658     0.35300
H1512       H  0.80453189  0.85993295  0.30680877     0.27900
H1513       H  0.49267110  0.75107929  0.30925875     0.40800
H1514       H  0.62689544  0.96001052  0.27940509     0.30800
H1515       H  0.70962279  0.00524316  0.28696469     0.38400
H1516       H  0.59745222  0.64733068  0.29051809     0.30300
H1517       H  0.56810648  0.80515895  0.26504003     0.30300
H1518       H  0.73480667  0.83214811  0.26364010     0.30600
Zr1519     Zr  0.73658035  0.83941163  0.36763309     2.17500
O1520       O  0.79932444  0.84868796  0.35786721    -0.51800
O1521       O  0.79866849  0.92914173  0.36943566    -0.75000
O1522       O  0.71506858  0.84799550  0.35394137    -0.81700
O1523       O  0.78931387  0.78302429  0.38232799    -0.83500
O1524       O  0.63973003  0.84464483  0.35376445    -0.79100
O1525       O  0.79901851  0.81513525  0.36994396    -0.90700
O1526       O  0.77944699  0.95615398  0.38071521    -0.76700
O1527       O  0.69052388  0.88050385  0.37082378    -0.86200
O1528       O  0.74549346  0.85335817  0.38157084    -0.85900
O1529       O  0.65205223  0.77908147  0.36380813    -0.72600
O1530       O  0.70349756  0.75765269  0.37380132    -0.84800
Zr1531     Zr  0.57882289  0.75590383  0.38699099     2.26400
Zr1532     Zr  0.60626590  0.82112191  0.36699204     2.06300
Zr1533     Zr  0.71081278  0.77287408  0.38775517     2.10000
Zr1534     Zr  0.69741542  0.89222541  0.38484775     1.78800
O1535       O  0.73328979  0.71131984  0.39212709    -0.93600
O1536       O  0.68864833  0.96441027  0.38119159    -0.41400
O1537       O  0.66306627  0.81233668  0.39132759    -0.78000
O1538       O  0.61284040  0.83710877  0.38091853    -0.96700
O1539       O  0.57111441  0.74062878  0.37316083    -0.90000
O1540       O  0.62607082  0.71529915  0.38397119    -0.92900
C1541       C  0.80821221  0.96220468  0.37485582     1.00900
C1542       C  0.81292490  0.79797072  0.37570806     1.13800
C1543       C  0.67816643  0.84770684  0.35027647     1.04600
O1544       O  0.60637656  0.89867157  0.36383344    -0.95000
O1545       O  0.52635459  0.80819125  0.37166077    -0.90800
O1546       O  0.50834549  0.76869032  0.38356262    -0.83900
C1547       C  0.49797085  0.78895757  0.37771511     1.11200
O1548       O  0.65740210  0.67598376  0.35994463    -0.97000
Zr1549     Zr  0.61783857  0.69982991  0.37028451     1.88900
O1550       O  0.51116295  0.67116526  0.38485842    -0.73600
O1551       O  0.54259217  0.77075263  0.35722606    -0.52900
O1552       O  0.56576548  0.66790751  0.35850587    -0.97600
O1553       O  0.62963359  0.63065496  0.37470552    -0.54800
O1554       O  0.53345903  0.63855888  0.37466544    -0.74200
C1555       C  0.50210100  0.63580313  0.37994735     0.98200
O1556       O  0.54446336  0.77721130  0.39841431    -0.63000
O1557       O  0.76352592  0.82982305  0.39813019    -0.57800
O1558       O  0.58559286  0.71364452  0.39871921    -0.94500
O1559       O  0.66336228  0.72174636  0.39910473    -0.92900
O1560       O  0.74666944  0.91594201  0.39696609    -0.93200
O1561       O  0.65776069  0.91698916  0.39503588    -0.92000
C1562       C  0.61881830  0.70523888  0.40188501     1.17000
H1563       H  0.78035972  0.87371996  0.38306807     0.33000
H1564       H  0.59371687  0.85299502  0.38242781     0.43800
H1565       H  0.61293282  0.68329410  0.38661113     0.37400
H1566       H  0.64885353  0.76957852  0.35832533     0.33800
H1567       H  0.71346254  0.99241373  0.38450324     0.25600
H1568       H  0.54350608  0.79513918  0.35330145     0.31600
H1569       H  0.53384660  0.66673285  0.35988827     0.37500
H1570       H  0.75748723  0.95194595  0.39774526     0.31900
H1571       H  0.75518834  0.80854346  0.40291535     0.30800
H1572       H  0.75813499  0.72842591  0.39639280     0.32500
H1573       H  0.60018874  0.60942665  0.37808309     0.31500
H1574       H  0.64771287  0.89099771  0.39919752     0.35500
H1575       H  0.56660481  0.78083277  0.40291053     0.28200
H1576       H  0.80842948  0.87990603  0.35489234     0.32400
H1577       H  0.63389153  0.63991533  0.35888282     0.35300
H1578       H  0.79807584  0.83786192  0.39673630     0.27900
H1579       H  0.55181449  0.81203460  0.39737667     0.40800
H1580       H  0.58436029  0.89020921  0.35914636     0.30800
H1581       H  0.70242302  0.97322427  0.37576553     0.38400
H1582       H  0.65832752  0.64628370  0.37841307     0.30300
H1583       H  0.55644609  0.75215494  0.35437073     0.30300
H1584       H  0.78154171  0.82094584  0.35402754     0.30600
Zr1585     Zr  0.88055388  0.72370209  0.22123688     2.17500
O1586       O  0.86430956  0.76098815  0.23280700    -0.51800
O1587       O  0.96582187  0.79278291  0.21953766    -0.75000
O1588       O  0.91802243  0.71240720  0.23319635    -0.81700
O1589       O  0.81107078  0.76850552  0.20801758    -0.83500
O1590       O  0.91423815  0.63665405  0.23275506    -0.79100
O1591       O  0.85686505  0.78760060  0.21933277    -0.90700
O1592       O  0.99912706  0.77694243  0.20870416    -0.76700
O1593       O  0.92466290  0.68144552  0.21757862    -0.86200
O1594       O  0.89446628  0.73673227  0.20736895    -0.85900
O1595       O  0.82593409  0.63726968  0.22474866    -0.72600
O1596       O  0.79942358  0.68905207  0.21520345    -0.84800
Zr1597     Zr  0.80226358  0.57090067  0.20060160     2.26400
Zr1598     Zr  0.86993154  0.59482907  0.22059792     2.06300
Zr1599     Zr  0.81343007  0.69987280  0.20127410     2.10000
Zr1600     Zr  0.93848744  0.69384931  0.20381882     1.78800
O1601       O  0.72974615  0.68131408  0.19722885    -0.93600
O1602       O  0.00906394  0.68487323  0.20827489    -0.41400
O1603       O  0.85780524  0.65764896  0.19788443    -0.78000
O1604       O  0.88463559  0.60557412  0.20660317    -0.96700
O1605       O  0.78902184  0.55930413  0.21452255    -0.90000
O1606       O  0.75755821  0.61295490  0.20425691    -0.92900
C1607       C  0.00137098  0.80501734  0.21451329     1.00900
C1608       C  0.82993079  0.79487437  0.21428179     1.13800
C1609       C  0.92706060  0.67900936  0.23612469     1.04600
O1610       O  0.94521419  0.58734402  0.22107263    -0.95000
O1611       O  0.84783499  0.51160908  0.21576328    -0.90800
O1612       O  0.82062534  0.50362267  0.20311534    -0.83900
C1613       C  0.83222973  0.48706176  0.20925034     1.11200
O1614       O  0.71814163  0.63428166  0.22925835    -0.97000
Zr1615     Zr  0.74599710  0.60254511  0.21828711     1.88900
O1616       O  0.71242795  0.50751015  0.20203635    -0.73600
O1617       O  0.82935251  0.53842226  0.23171188    -0.52900
O1618       O  0.71741768  0.54810554  0.22985916    -0.97600
O1619       O  0.67420079  0.61129999  0.21435306    -0.54800
O1620       O  0.68709496  0.51919821  0.21406532    -0.74200
C1621       C  0.68091041  0.49352617  0.20781262     0.98200
O1622       O  0.78373908  0.51622848  0.18911249    -0.63000
O1623       O  0.84956692  0.77435584  0.19284814    -0.57800
O1624       O  0.81522714  0.60510188  0.18698089    -0.94500
O1625       O  0.81821203  0.68051681  0.18743429    -0.92900
O1626       O  0.96388252  0.74640522  0.19202122    -0.93200
O1627       O  0.96784505  0.66169574  0.19313733    -0.92000
C1628       C  0.81987803  0.64510436  0.18361086     1.17000
H1629       H  0.91328667  0.77204748  0.20606238     0.33000
H1630       H  0.90138475  0.58782703  0.20478449     0.43800
H1631       H  0.72637669  0.59952077  0.20137353     0.37400
H1632       H  0.82085852  0.63437579  0.23039703     0.33800
H1633       H  0.03686430  0.70592404  0.20460852     0.25600
H1634       H  0.85665623  0.53547983  0.23431191     0.31600
H1635       H  0.73180382  0.52572729  0.22919854     0.37500
H1636       H  0.93264701  0.73418070  0.18890863     0.31900
H1637       H  0.82209216  0.78193712  0.19201906     0.30800
H1638       H  0.72910389  0.67665187  0.19143414     0.32500
H1639       H  0.66129834  0.59186087  0.20940271     0.31500
H1640       H  0.93704443  0.63867184  0.19016956     0.35500
H1641       H  0.81483873  0.51494966  0.18804876     0.28200
H1642       H  0.89780604  0.78526480  0.23494526     0.32400
H1643       H  0.68135669  0.61153849  0.22964174     0.35300
H1644       H  0.87434661  0.80230675  0.19616844     0.27900
H1645       H  0.75915734  0.48195789  0.19095565     0.40800
H1646       H  0.95762935  0.59255640  0.21556217     0.30800
H1647       H  0.01939477  0.70306565  0.21337369     0.38400
H1648       H  0.68893326  0.64693364  0.21273283     0.30300
H1649       H  0.82107811  0.55789712  0.23548977     0.30300
H1650       H  0.84910593  0.73375142  0.23679091     0.30600
Zr1651     Zr  0.86545971  0.74135653  0.13276179     2.17500
O1652       O  0.87395468  0.80293758  0.14268941    -0.51800
O1653       O  0.95506258  0.80315984  0.13106570    -0.75000
O1654       O  0.87326155  0.71701368  0.14649693    -0.81700
O1655       O  0.81470382  0.79799902  0.11768253    -0.83500
O1656       O  0.86897162  0.64097655  0.14626479    -0.79100
O1657       O  0.84296015  0.80559438  0.13032528    -0.90700
O1658       O  0.98304895  0.78621570  0.11969468    -0.76700
O1659       O  0.90965536  0.69942711  0.12877795    -0.86200
O1660       O  0.87610036  0.75156735  0.11873243    -0.85900
O1661       O  0.80806648  0.65532805  0.13632832    -0.72600
O1662       O  0.78316800  0.70761343  0.12681444    -0.84800
Zr1663     Zr  0.78387243  0.58662556  0.11281128     2.26400
Zr1664     Zr  0.85378272  0.61395873  0.13250739     2.06300
Zr1665     Zr  0.79459344  0.71576149  0.11276873     2.10000
Zr1666     Zr  0.91770579  0.70782033  0.11467435     1.78800
O1667       O  0.71946824  0.72355092  0.11237834    -0.93600
O1668       O  0.98971804  0.69558630  0.11637142    -0.41400
O1669       O  0.83684069  0.67183124  0.10863621    -0.78000
O1670       O  0.86639119  0.62221248  0.11845345    -0.96700
O1671       O  0.77206350  0.57795290  0.12674517    -0.90000
O1672       O  0.74051183  0.63013091  0.11637900    -0.92900
C1673       C  0.98908766  0.81316402  0.12579768     1.00900
C1674       C  0.82963004  0.82140781  0.12429178     1.13800
C1675       C  0.87179808  0.67875933  0.15000358     1.04600
O1676       O  0.93880775  0.62946755  0.13467129    -0.95000
O1677       O  0.84250604  0.53597928  0.12712726    -0.90800
O1678       O  0.79965785  0.51773162  0.11552297    -0.83900
C1679       C  0.82243903  0.50820009  0.12103642     1.11200
O1680       O  0.70314212  0.66614987  0.13930583    -0.97000
Zr1681     Zr  0.72841382  0.62112112  0.13019139     1.88900
O1682       O  0.70136651  0.51624204  0.11563310    -0.73600
O1683       O  0.81956274  0.54143373  0.14132236    -0.52900
O1684       O  0.70435708  0.57840185  0.14291395    -0.97600
O1685       O  0.64991715  0.61657086  0.12620870    -0.54800
O1686       O  0.67279713  0.53360314  0.12691014    -0.74200
C1687       C  0.66947810  0.50405706  0.12128312     0.98200
O1688       O  0.80359898  0.55429031  0.10095119    -0.63000
O1689       O  0.83743521  0.77433775  0.10196930    -0.57800
O1690       O  0.74146872  0.59379563  0.10109298    -0.94500
O1691       O  0.74783283  0.67078097  0.10084844    -0.92900
O1692       O  0.93819543  0.76542343  0.10357359    -0.93200
O1693       O  0.93929597  0.67672740  0.10290753    -0.92000
C1694       C  0.73251709  0.62662215  0.09789472     1.17000
H1695       H  0.89593107  0.78674118  0.11734954     0.33000
H1696       H  0.88320793  0.60456325  0.11662757     0.43800
H1697       H  0.70842099  0.61618066  0.11375005     0.37400
H1698       H  0.79778486  0.65035756  0.14177940     0.33800
H1699       H  0.01852258  0.72627642  0.11413511     0.25600
H1700       H  0.84815065  0.54626439  0.14464702     0.31600
H1701       H  0.66794185  0.56633363  0.14337274     0.37500
H1702       H  0.97505730  0.78123479  0.10294518     0.31900
H1703       H  0.83973814  0.75351378  0.09769496     0.30800
H1704       H  0.72610033  0.74842739  0.10814873     0.32500
H1705       H  0.62624878  0.59837116  0.13057747     0.31500
H1706       H  0.90834859  0.66145287  0.09966804     0.35500
H1707       H  0.81434059  0.58142318  0.09697196     0.28200
H1708       H  0.90520392  0.81189353  0.14561816     0.32400
H1709       H  0.73508437  0.69379102  0.14142083     0.35300
H1710       H  0.81276071  0.78366814  0.10002358     0.27900
H1711       H  0.83491830  0.55389418  0.10218673     0.40800
H1712       H  0.94353788  0.60878298  0.13063675     0.30800
H1713       H  0.99594929  0.69844600  0.12213602     0.38400
H1714       H  0.63711072  0.59257489  0.12174176     0.30300
H1715       H  0.79691509  0.54609430  0.14496029     0.30300
H1716       H  0.84637821  0.78434288  0.14652575     0.30600
Zr1717     Zr  0.25031334  0.12528517  0.22117719     2.17500
O1718       O  0.21477177  0.07134768  0.23268356    -0.51800
O1719       O  0.17986381  0.13875142  0.21926494    -0.75000
O1720       O  0.26052492  0.17502742  0.23308480    -0.81700
O1721       O  0.20391666  0.01443657  0.20729929    -0.83500
O1722       O  0.33768176  0.24551990  0.23296300    -0.79100
O1723       O  0.18562904  0.03769297  0.21902290    -0.90700
O1724       O  0.19734458  0.18725708  0.20825531    -0.76700
O1725       O  0.29527180  0.21251373  0.21781756    -0.86200
O1726       O  0.23854409  0.12808431  0.20724933    -0.85900
O1727       O  0.33598024  0.15487376  0.22498229    -0.72600
O1728       O  0.28326319  0.07766003  0.21491299    -0.84800
Zr1729     Zr  0.40406097  0.19828262  0.20115815     2.26400
Zr1730     Zr  0.38145380  0.24176718  0.22111139     2.06300
Zr1731     Zr  0.27556421  0.08463724  0.20102543     2.10000
Zr1732     Zr  0.28395508  0.21522939  0.20405835     1.78800
O1733       O  0.29386983  0.01966304  0.19675202    -0.93600
O1734       O  0.28721975  0.29073898  0.20934256    -0.41400
O1735       O  0.31996101  0.16959129  0.19958085    -0.78000
O1736       O  0.37161053  0.24836472  0.20715474    -0.96700
O1737       O  0.41489968  0.19419452  0.21499452    -0.90000
O1738       O  0.36082216  0.11117847  0.20441086    -0.92900
C1739       C  0.16806405  0.16055258  0.21391821     1.00900
C1740       C  0.17743600  0.00498892  0.21360642     1.13800
C1741       C  0.29424850  0.21698414  0.23608228     1.04600
O1742       O  0.39465357  0.32670867  0.22229759    -0.95000
O1743       O  0.46566760  0.30218507  0.21634384    -0.90800
O1744       O  0.46916668  0.28460379  0.20340273    -0.83900
C1745       C  0.48735968  0.31227024  0.20954365     1.11200
O1746       O  0.33214466  0.05384359  0.23009781    -0.97000
Zr1747     Zr  0.36831496  0.10735632  0.21848462     1.88900
O1748       O  0.46646050  0.17027720  0.20293860    -0.73600
O1749       O  0.43551089  0.25166660  0.23231424    -0.52900
O1750       O  0.43046312  0.13166894  0.22899833    -0.97600
O1751       O  0.34411286  0.02065628  0.21528214    -0.54800
O1752       O  0.44496458  0.11668661  0.21330875    -0.74200
C1753       C  0.47431600  0.14179640  0.20765475     0.98200
O1754       O  0.46205261  0.23098856  0.18997758    -0.63000
O1755       O  0.20337061  0.04613587  0.19220416    -0.57800
O1756       O  0.37313689  0.17913839  0.18748197    -0.94500
O1757       O  0.29501744  0.11072104  0.18732106    -0.92900
O1758       O  0.23965412  0.19806084  0.19153068    -0.93200
O1759       O  0.31856280  0.28118470  0.19402907    -0.92000
C1760       C  0.33275075  0.14724827  0.18386455     1.17000
H1761       H  0.20355850  0.11156399  0.20575036     0.33000
H1762       H  0.38961956  0.28314372  0.20550015     0.43800
H1763       H  0.37409923  0.09322100  0.20152561     0.37400
H1764       H  0.33802452  0.15205677  0.23063569     0.33800
H1765       H  0.32267450  0.31777351  0.20881441     0.25600
H1766       H  0.45722334  0.23842301  0.23042183     0.31600
H1767       H  0.41702584  0.14263054  0.23342197     0.37500
H1768       H  0.21386913  0.16201289  0.19187222     0.31900
H1769       H  0.19245515  0.00980073  0.19214543     0.30800
H1770       H  0.27242987  0.00430644  0.19205309     0.32500
H1771       H  0.36597792  0.01297519  0.21859256     0.31500
H1772       H  0.35153924  0.28491359  0.19260371     0.35500
H1773       H  0.46291807  0.26244483  0.18833519     0.28200
H1774       H  0.19343355  0.08284408  0.23531501     0.32400
H1775       H  0.35458883  0.04024736  0.23136246     0.35300
H1776       H  0.17612934  0.04830470  0.19499014     0.27900
H1777       H  0.49578170  0.24228884  0.19222520     0.40800
H1778       H  0.36050373  0.32222433  0.22276635     0.30800
H1779       H  0.26856675  0.29962883  0.20550300     0.38400
H1780       H  0.35618440  0.02175256  0.20982240     0.30300
H1781       H  0.45840606  0.28843418  0.23275478     0.30300
H1782       H  0.24373423  0.08118360  0.23624369     0.30600
Zr1783     Zr  0.26211231  0.11192927  0.13250704     2.17500
O1784       O  0.20181528  0.05555807  0.14229372    -0.51800
O1785       O  0.20150679  0.14213323  0.13130714    -0.75000
O1786       O  0.28496154  0.14124499  0.14630575    -0.81700
O1787       O  0.20919494  0.99984104  0.11806820    -0.83500
O1788       O  0.36361118  0.20899621  0.14628302    -0.79100
O1789       O  0.19591317  0.02669357  0.12988889    -0.90700
O1790       O  0.21986068  0.19141870  0.12040178    -0.76700
O1791       O  0.30341062  0.19852539  0.12879487    -0.86200
O1792       O  0.25110650  0.11320730  0.11853270    -0.85900
O1793       O  0.34834603  0.13970632  0.13589395    -0.72600
O1794       O  0.29657572  0.06401356  0.12645922    -0.84800
Zr1795     Zr  0.41662181  0.18745486  0.11257614     2.26400
Zr1796     Zr  0.38882984  0.22738444  0.13242572     2.06300
Zr1797     Zr  0.28722464  0.06772101  0.11249171     2.10000
Zr1798     Zr  0.29490544  0.19921204  0.11471614     1.78800
O1799       O  0.28482464  0.98785640  0.11045187    -0.93600
O1800       O  0.31577801  0.28678909  0.11568302    -0.41400
O1801       O  0.33093797  0.15436574  0.10855544    -0.78000
O1802       O  0.38039526  0.23306051  0.11847178    -0.96700
O1803       O  0.42617057  0.18299286  0.12647081    -0.90000
O1804       O  0.37332358  0.10006194  0.11584475    -0.92900
C1805       C  0.19279213  0.16918732  0.12643073     1.00900
C1806       C  0.18349253  0.99374139  0.12440699     1.13800
C1807       C  0.32444262  0.17512411  0.14990898     1.04600
O1808       O  0.36443970  0.29085636  0.13454546    -0.95000
O1809       O  0.46807543  0.29323231  0.12710360    -0.90800
O1810       O  0.48633277  0.27187304  0.11520839    -0.83900
C1811       C  0.49622642  0.30269832  0.12098310     1.11200
O1812       O  0.34249250  0.02980987  0.13946666    -0.97000
Zr1813     Zr  0.38336745  0.09563416  0.12953599     1.88900
O1814       O  0.48744088  0.17412982  0.11440097    -0.73600
O1815       O  0.46195724  0.28190953  0.14044832    -0.52900
O1816       O  0.43329819  0.11778252  0.14158780    -0.97600
O1817       O  0.37972652  0.01744818  0.12547802    -0.54800
O1818       O  0.46771165  0.12245900  0.12497967    -0.74200
C1819       C  0.49786595  0.14969718  0.11950116     0.98200
O1820       O  0.44061547  0.24095743  0.10088774    -0.63000
O1821       O  0.22515562  0.05204531  0.10231765    -0.57800
O1822       O  0.41029465  0.13953776  0.10083968    -0.94500
O1823       O  0.33228888  0.07078321  0.10032394    -0.92900
O1824       O  0.23349480  0.16272518  0.10410137    -0.93200
O1825       O  0.32294449  0.25222819  0.10296460    -0.92000
C1826       C  0.37668344  0.09925883  0.09747196     1.17000
H1827       H  0.21591009  0.09794243  0.11722244     0.33000
H1828       H  0.39811667  0.26774489  0.11677553     0.43800
H1829       H  0.38733187  0.08216980  0.11311962     0.37400
H1830       H  0.35295104  0.13237985  0.14125403     0.33800
H1831       H  0.28514082  0.28698599  0.11392214     0.25600
H1832       H  0.44911573  0.28789933  0.14545819     0.31600
H1833       H  0.46546912  0.14817490  0.14021570     0.37500
H1834       H  0.21620172  0.18270450  0.10402255     0.31900
H1835       H  0.24482055  0.07326848  0.09780038     0.30800
H1836       H  0.26414589  0.97344072  0.10565148     0.32500
H1837       H  0.40550225  0.02702946  0.12129921     0.31500
H1838       H  0.32620515  0.23121548  0.09882148     0.35500
H1839       H  0.41448725  0.22150750  0.09689658     0.28200
H1840       H  0.19075720  0.07609194  0.14529198     0.32400
H1841       H  0.36723123  0.01926630  0.14084431     0.35300
H1842       H  0.21350245  0.01712598  0.10055973     0.27900
H1843       H  0.43409036  0.26847430  0.10235291     0.40800
H1844       H  0.38350484  0.30954599  0.13928076     0.30800
H1845       H  0.31774686  0.29368218  0.12141939     0.38400
H1846       H  0.34730098  0.99839137  0.12267472     0.30300
H1847       H  0.47693430  0.26092901  0.14188205     0.30300
H1848       H  0.22127532  0.04750881  0.14610212     0.30600
Zr1849     Zr  0.85121726  0.09319648  0.22136256     2.17500
O1850       O  0.91010299  0.11679235  0.23227854    -0.51800
O1851       O  0.83457939  0.00784393  0.22015366    -0.75000
O1852       O  0.80470766  0.05603493  0.23355626    -0.81700
O1853       O  0.95425472  0.13661499  0.20629708    -0.83500
O1854       O  0.73261569  0.05975320  0.23302555    -0.79100
O1855       O  0.93564898  0.10881068  0.21896828    -0.90700
O1856       O  0.77974678  0.97161295  0.21004535    -0.76700
O1857       O  0.76408381  0.04960792  0.21819288    -0.86200
O1858       O  0.84749266  0.07609940  0.20752697    -0.85900
O1859       O  0.82062544  0.14893889  0.22497130    -0.72600
O1860       O  0.89851004  0.17304726  0.21490320    -0.84800
Zr1861     Zr  0.77626446  0.17051230  0.20091396     2.26400
Zr1862     Zr  0.73371075  0.10598855  0.22116211     2.06300
Zr1863     Zr  0.89202428  0.15606673  0.20106176     2.10000
Zr1864     Zr  0.75998135  0.03303726  0.20451455     1.78800
O1865       O  0.96056753  0.24187360  0.19902427    -0.93600
O1866       O  0.67796825  0.96688364  0.20895476    -0.41400
O1867       O  0.80495817  0.11256724  0.19814000    -0.78000
O1868       O  0.72767340  0.08882669  0.20722671    -0.96700
O1869       O  0.77969677  0.18608061  0.21477910    -0.90000
O1870       O  0.86354061  0.21420344  0.20410964    -0.92900
C1871       C  0.80810213  0.97080625  0.21555593     1.00900
C1872       C  0.96441955  0.12292360  0.21288318     1.13800
C1873       C  0.76202840  0.04676293  0.23640078     1.04600
O1874       O  0.65019743  0.03477966  0.22361225    -0.95000
O1875       O  0.66916131  0.12278504  0.21595942    -0.90800
O1876       O  0.69219673  0.15517837  0.20358651    -0.83900
C1877       C  0.66177435  0.13983934  0.20945131     1.11200
O1878       O  0.93264620  0.25301437  0.22791023    -0.97000
Zr1879     Zr  0.86633456  0.22743563  0.21812216     1.88900
O1880       O  0.80355996  0.26073954  0.20210281    -0.73600
O1881       O  0.72158203  0.15131618  0.23198631    -0.52900
O1882       O  0.84441272  0.25549051  0.23018785    -0.97600
O1883       O  0.94273507  0.30461988  0.21447652    -0.54800
O1884       O  0.83936897  0.28495602  0.21415619    -0.74200
C1885       C  0.82063099  0.29207650  0.20789402     0.98200
O1886       O  0.73827003  0.18549448  0.18930981    -0.63000
O1887       O  0.93891544  0.14460916  0.19039891    -0.57800
O1888       O  0.79670890  0.15989379  0.18719956    -0.94500
O1889       O  0.86165821  0.14446400  0.18746936    -0.92900
O1890       O  0.77889071  0.99561973  0.19327888    -0.93200
O1891       O  0.70274815  0.00752017  0.19332888    -0.92000
C1892       C  0.82759756  0.14893609  0.18375764     1.17000
H1893       H  0.86264471  0.05590487  0.20622608     0.33000
H1894       H  0.69303340  0.07228275  0.20552891     0.43800
H1895       H  0.88108244  0.24509662  0.20113531     0.37400
H1896       H  0.82378844  0.15467547  0.23060572     0.33800
H1897       H  0.67194300  0.93680728  0.20590524     0.25600
H1898       H  0.74949850  0.15941149  0.23569520     0.31600
H1899       H  0.86909943  0.29191038  0.23051637     0.37500
H1900       H  0.81314057  0.00152713  0.19431581     0.31900
H1901       H  0.97487615  0.16660564  0.19169366     0.30800
H1902       H  0.96150289  0.24708494  0.19323876     0.32500
H1903       H  0.94321288  0.33069829  0.21799269     0.31500
H1904       H  0.70533120  0.03921077  0.19138590     0.35500
H1905       H  0.70633343  0.15372184  0.18841310     0.28200
H1906       H  0.90258162  0.08455315  0.23477120     0.32400
H1907       H  0.92217649  0.22265218  0.23119417     0.35300
H1908       H  0.93268314  0.10988906  0.19106190     0.27900
H1909       H  0.72800817  0.21000755  0.19099746     0.40800
H1910       H  0.63505410  0.02356681  0.21831569     0.30800
H1911       H  0.68338412  0.95941311  0.21443966     0.38400
H1912       H  0.93633629  0.31365056  0.20916170     0.30300
H1913       H  0.72942515  0.18413745  0.22968629     0.30300
H1914       H  0.89896440  0.13354423  0.23612743     0.30600
Zr1915     Zr  0.89074979  0.13736707  0.13252827     2.17500
O1916       O  0.94825549  0.13972646  0.14268078    -0.51800
O1917       O  0.86526456  0.04824845  0.13082916    -0.75000
O1918       O  0.85544952  0.12361726  0.14609448    -0.81700
O1919       O  0.00382989  0.19720370  0.11830169    -0.83500
O1920       O  0.78669020  0.13303188  0.14562854    -0.79100
O1921       O  0.97538707  0.15474669  0.12991737    -0.90700
O1922       O  0.83042989  0.02485398  0.11863615    -0.76700
O1923       O  0.80556360  0.09142560  0.12827540    -0.86200
O1924       O  0.89312251  0.12886374  0.11849398    -0.85900
O1925       O  0.85946214  0.19293496  0.13600674    -0.72600
O1926       O  0.93786325  0.22105971  0.12699222    -0.84800
Zr1927     Zr  0.81691023  0.21823787  0.11246358     2.26400
Zr1928     Zr  0.77330105  0.14537481  0.13182332     2.06300
Zr1929     Zr  0.93798858  0.21154656  0.11293289     2.10000
Zr1930     Zr  0.80827979  0.08529623  0.11420026     1.78800
O1931       O  0.01816249  0.28961818  0.11246175    -0.93600
O1932       O  0.72893900  0.00926963  0.11709238    -0.41400
O1933       O  0.85251105  0.16752234  0.10840557    -0.78000
O1934       O  0.77146787  0.13480176  0.11780542    -0.96700
O1935       O  0.81709944  0.22841095  0.12639765    -0.90000
O1936       O  0.90280586  0.26314526  0.11636115    -0.92900
C1937       C  0.84818832  0.01741499  0.12497959     1.00900
C1938       C  0.00867545  0.17559353  0.12449746     1.13800
C1939       C  0.81948055  0.12712678  0.14945490     1.04600
O1940       O  0.70897905  0.05696581  0.13246478    -0.95000
O1941       O  0.70848790  0.15945021  0.12641070    -0.90800
O1942       O  0.73214870  0.20208951  0.11482081    -0.83900
C1943       C  0.70005519  0.17920608  0.12034087     1.11200
O1944       O  0.96181850  0.30162461  0.14117696    -0.97000
Zr1945     Zr  0.90298228  0.27371399  0.13015064     1.88900
O1946       O  0.82640638  0.30037669  0.11491617    -0.73600
O1947       O  0.71710160  0.16131265  0.13998306    -0.52900
O1948       O  0.87291113  0.29795989  0.14174613    -0.97600
O1949       O  0.98370459  0.34692495  0.12678217    -0.54800
O1950       O  0.87611563  0.33153522  0.12571502    -0.74200
C1951       C  0.84929252  0.33442742  0.12016803     0.98200
O1952       O  0.76423007  0.19636906  0.10069185    -0.63000
O1953       O  0.95679603  0.17028629  0.10223296    -0.57800
O1954       O  0.86785857  0.26306438  0.10110591    -0.94500
O1955       O  0.93959725  0.25858816  0.10108754    -0.92900
O1956       O  0.84000579  0.06516397  0.10235778    -0.93200
O1957       O  0.74745487  0.05700796  0.10345822    -0.92000
C1958       C  0.91040293  0.27325132  0.09810412     1.17000
H1959       H  0.91003760  0.11050122  0.11709239     0.33000
H1960       H  0.73725784  0.11765328  0.11590298     0.43800
H1961       H  0.92044211  0.29562103  0.11382942     0.37400
H1962       H  0.86434634  0.20257461  0.14149122     0.33800
H1963       H  0.72946504  0.98269313  0.11383235     0.25600
H1964       H  0.71206085  0.14306422  0.14502536     0.31600
H1965       H  0.83764961  0.28794401  0.14049724     0.37500
H1966       H  0.82897704  0.02891756  0.10283465     0.31900
H1967       H  0.93567445  0.16954870  0.09776286     0.30800
H1968       H  0.04115429  0.28097941  0.10964847     0.32500
H1969       H  0.97891312  0.35938540  0.12164901     0.31500
H1970       H  0.74947522  0.08815306  0.10138374     0.35500
H1971       H  0.78360118  0.19157428  0.09643642     0.28200
H1972       H  0.92995302  0.10739207  0.14556459     0.32400
H1973       H  0.97138405  0.33719874  0.14211883     0.35300
H1974       H  0.99156310  0.19492650  0.10062016     0.27900
H1975       H  0.73598674  0.16200752  0.10170838     0.40800
H1976       H  0.68364066  0.05343256  0.12851681     0.30800
H1977       H  0.73239661  0.00025357  0.12258050     0.38400
H1978       H  0.00604414  0.33308891  0.12559390     0.30300
H1979       H  0.73677781  0.19744440  0.14135476     0.30300
H1980       H  0.95186784  0.16578238  0.14650525     0.30600
Zr1981     Zr  0.47703527  0.55429106  0.03446020     2.17500
O1982       O  0.47813109  0.61153728  0.02432648    -0.51800
O1983       O  0.38834509  0.53178961  0.03635314    -0.75000
O1984       O  0.46379601  0.52031345  0.02091679    -0.81700
O1985       O  0.54223160  0.66843752  0.04830659    -0.83500
O1986       O  0.46550626  0.44730073  0.02119968    -0.79100
O1987       O  0.50007137  0.64042594  0.03669691    -0.90700
O1988       O  0.36313143  0.49448263  0.04836168    -0.76700
O1989       O  0.43006464  0.46905492  0.03854494    -0.86200
O1990       O  0.46813471  0.55689931  0.04844345    -0.85900
O1991       O  0.53119464  0.52152144  0.03093938    -0.72600
O1992       O  0.56085686  0.59933753  0.04001366    -0.84800
Zr1993     Zr  0.55312768  0.47553852  0.05460927     2.26400
Zr1994     Zr  0.48268958  0.43524043  0.03488632     2.06300
Zr1995     Zr  0.55056123  0.59960238  0.05403045     2.10000
Zr1996     Zr  0.42319042  0.47173633  0.05263306     1.78800
O1997       O  0.62844237  0.67918527  0.05560051    -0.93600
O1998       O  0.34686735  0.39190394  0.05016849    -0.41400
O1999       O  0.50474888  0.51392248  0.05845775    -0.78000
O2000       O  0.47054528  0.43276527  0.04895292    -0.96700
O2001       O  0.56466597  0.47628032  0.04068799    -0.90000
O2002       O  0.60008056  0.56187580  0.05070809    -0.92900
C2003       C  0.35681972  0.51409665  0.04213981     1.00900
C2004       C  0.52185923  0.67392686  0.04202197     1.13800
C2005       C  0.46305513  0.48246015  0.01744524     1.04600
O2006       O  0.39592221  0.36804474  0.03351665    -0.95000
O2007       O  0.48769581  0.36481142  0.04022810    -0.90800
O2008       O  0.52851056  0.38708908  0.05201274    -0.83900
C2009       C  0.50469164  0.35488208  0.04647937     1.11200
O2010       O  0.64268619  0.62562776  0.02654077    -0.97000
Zr2011     Zr  0.61171109  0.56222654  0.03695016     1.88900
O2012       O  0.63392539  0.48215410  0.05232048    -0.73600
O2013       O  0.51788704  0.39899462  0.02579171    -0.52900
O2014       O  0.63207949  0.53102238  0.02507298    -0.97600
O2015       O  0.68903978  0.63903865  0.04040047    -0.54800
O2016       O  0.66645271  0.53143681  0.04143927    -0.74200
C2017       C  0.66772657  0.50357885  0.04699215     0.98200
O2018       O  0.53407892  0.42980748  0.06710720    -0.63000
O2019       O  0.50704760  0.61706198  0.06454090    -0.57800
O2020       O  0.59778255  0.52657140  0.06610170    -0.94500
O2021       O  0.59493540  0.59918496  0.06598763    -0.92900
O2022       O  0.40493413  0.50729572  0.06418363    -0.93200
O2023       O  0.39881876  0.41686522  0.06415399    -0.92000
C2024       C  0.60839283  0.56942748  0.06910481     1.17000
H2025       H  0.45046662  0.57457675  0.04981880     0.33000
H2026       H  0.45178405  0.39846905  0.05080725     0.43800
H2027       H  0.63248728  0.57894433  0.05325818     0.37400
H2028       H  0.54019747  0.52571003  0.02542550     0.33800
H2029       H  0.32206316  0.39093692  0.05401598     0.25600
H2030       H  0.48848877  0.37010933  0.02331044     0.31600
H2031       H  0.63001036  0.49900017  0.02669427     0.37500
H2032       H  0.36785553  0.49122294  0.06432177     0.31900
H2033       H  0.50381072  0.59401233  0.06888818     0.30800
H2034       H  0.61968642  0.69947916  0.05912175     0.32500
H2035       H  0.70496658  0.62928712  0.04459841     0.31500
H2036       H  0.42684814  0.41009306  0.06494732     0.35500
H2037       H  0.51841888  0.44487915  0.07043185     0.28200
H2038       H  0.44533954  0.59331679  0.02159199     0.32400
H2039       H  0.67565014  0.62991749  0.02494559     0.35300
H2040       H  0.53191705  0.65092996  0.06648940     0.27900
H2041       H  0.50612847  0.39552455  0.06597960     0.40800
H2042       H  0.38278656  0.37755778  0.02888650     0.30800
H2043       H  0.33461242  0.39625836  0.04498332     0.38400
H2044       H  0.67776774  0.66031534  0.04311373     0.30300
H2045       H  0.53395136  0.42389819  0.02148665     0.30300
H2046       H  0.50348012  0.61508964  0.02036682     0.30600
Zr2047     Zr  0.43594304  0.51464591  0.94591521     2.17500
O2048       O  0.45742584  0.57386200  0.93502150    -0.51800
O2049       O  0.35104257  0.49905830  0.94786680    -0.75000
O2050       O  0.40025822  0.46786152  0.93368133    -0.81700
O2051       O  0.49638224  0.62445782  0.96001074    -0.83500
O2052       O  0.40151442  0.39431675  0.93446256    -0.79100
O2053       O  0.45347972  0.60000473  0.94841330    -0.90700
O2054       O  0.32062195  0.45040203  0.95886708    -0.76700
O2055       O  0.39382302  0.42752760  0.94928688    -0.86200
O2056       O  0.42261398  0.51151830  0.95983194    -0.85900
O2057       O  0.49184249  0.48468085  0.94209427    -0.72600
O2058       O  0.51681174  0.56173130  0.95198917    -0.84800
Zr2059     Zr  0.51761019  0.44135957  0.96614624     2.26400
Zr2060     Zr  0.45069881  0.39801742  0.94606364     2.06300
Zr2061     Zr  0.50316172  0.55640947  0.96594844     2.10000
Zr2062     Zr  0.37997965  0.42437907  0.96308558     1.78800
O2063       O  0.58554605  0.62634231  0.96945642    -0.93600
O2064       O  0.30777385  0.34576959  0.95878623    -0.41400
O2065       O  0.45999266  0.46960469  0.96930932    -0.78000
O2066       O  0.43557188  0.39244962  0.96005002    -0.96700
O2067       O  0.53133500  0.44445097  0.95218785    -0.90000
O2068       O  0.56102005  0.52837206  0.96261286    -0.92900
C2069       C  0.31774079  0.47709981  0.95326222     1.00900
C2070       C  0.47720395  0.63253913  0.95385086     1.13800
C2071       C  0.38992593  0.42447603  0.93097011     1.04600
O2072       O  0.38144203  0.31162125  0.94556738    -0.95000
O2073       O  0.47817934  0.33967728  0.95042822    -0.90800
O2074       O  0.49898583  0.35627282  0.96338885    -0.83900
C2075       C  0.49028601  0.32942211  0.95716466     1.11200
O2076       O  0.60046796  0.59052467  0.93766178    -0.97000
Zr2077     Zr  0.57152888  0.53063386  0.94854468     1.88900
O2078       O  0.60707328  0.46789417  0.96471251    -0.73600
O2079       O  0.49096570  0.38727827  0.93438154    -0.52900
O2080       O  0.60252554  0.50798568  0.93687044    -0.97600
O2081       O  0.63986284  0.61422874  0.95184626    -0.54800
O2082       O  0.63218369  0.50888745  0.95298501    -0.74200
C2083       C  0.63880836  0.48801061  0.95902984     0.98200
O2084       O  0.53618402  0.40417762  0.97750497    -0.63000
O2085       O  0.46743284  0.59055690  0.97530867    -0.57800
O2086       O  0.50867996  0.46265877  0.97995543    -0.94500
O2087       O  0.50317660  0.53357401  0.97967912    -0.92900
O2088       O  0.35392910  0.44692562  0.97528346    -0.93200
O2089       O  0.35042784  0.35824376  0.97302307    -0.92000
C2090       C  0.50382799  0.49755525  0.98343514     1.17000
H2091       H  0.40365921  0.52762717  0.96132665     0.33000
H2092       H  0.41931924  0.35771529  0.96171665     0.43800
H2093       H  0.59250097  0.54691140  0.96539865     0.37400
H2094       H  0.49652356  0.48735126  0.93643360     0.33800
H2095       H  0.29185378  0.35544160  0.95457561     0.25600
H2096       H  0.51831773  0.38224403  0.93644175     0.31600
H2097       H  0.57221802  0.48202434  0.93412512     0.37500
H2098       H  0.31676525  0.42876076  0.97504537     0.31900
H2099       H  0.49064821  0.62737895  0.97532343     0.30800
H2100       H  0.58541685  0.65676303  0.96751790     0.32500
H2101       H  0.66020191  0.60863423  0.95582051     0.31500
H2102       H  0.38145876  0.36228912  0.97549223     0.35500
H2103       H  0.50391052  0.37409532  0.97894703     0.28200
H2104       H  0.42587282  0.56268312  0.93204456     0.32400
H2105       H  0.58138598  0.60856618  0.93823278     0.35300
H2106       H  0.43635402  0.58602672  0.97279334     0.27900
H2107       H  0.55731894  0.39061749  0.97546482     0.40800
H2108       H  0.38220106  0.30016472  0.94012459     0.30800
H2109       H  0.32245093  0.32779161  0.95597418     0.38400
H2110       H  0.62367235  0.63016128  0.95481903     0.30300
H2111       H  0.46605915  0.35403992  0.93222388     0.30300
H2112       H  0.47899626  0.56682549  0.93151133     0.30600
Zr2113     Zr  0.07750102  0.52518634  0.03463540     2.17500
O2114       O  0.14188065  0.53640596  0.02508533    -0.51800
O2115       O  0.13772865  0.61636062  0.03591157    -0.75000
O2116       O  0.05314629  0.52759008  0.02076370    -0.81700
O2117       O  0.13754653  0.48254726  0.05024270    -0.83500
O2118       O  0.97753134  0.52395931  0.02093067    -0.79100
O2119       O  0.14171636  0.50317794  0.03725733    -0.90700
O2120       O  0.11733999  0.64718510  0.04657031    -0.76700
O2121       O  0.03118977  0.56647754  0.03755654    -0.86200
O2122       O  0.08724748  0.54224717  0.04850343    -0.85900
O2123       O  0.99236440  0.46300315  0.03135317    -0.72600
O2124       O  0.04596696  0.44499147  0.04130442    -0.84800
Zr2125     Zr  0.92303060  0.44631433  0.05475604     2.26400
Zr2126     Zr  0.94628371  0.50523705  0.03432352     2.06300
Zr2127     Zr  0.05497547  0.46320911  0.05518574     2.10000
Zr2128     Zr  0.03916500  0.58159111  0.05148133     1.78800
O2129       O  0.07041603  0.39373370  0.05761714    -0.93600
O2130       O  0.01473597  0.64191585  0.04704607    -0.41400
O2131       O  0.00806719  0.50399531  0.05851718    -0.78000
O2132       O  0.95436158  0.52508920  0.04810615    -0.96700
O2133       O  0.91307855  0.42678965  0.04107474    -0.90000
O2134       O  0.96967352  0.40498248  0.05191509    -0.92900
C2135       C  0.14597951  0.65215320  0.04077254     1.00900
C2136       C  0.15948064  0.49373038  0.04345586     1.13800
C2137       C  0.01490485  0.52567661  0.01726218     1.04600
O2138       O  0.94654089  0.58266062  0.03101078    -0.95000
O2139       O  0.86629781  0.49220274  0.03900986    -0.90800
O2140       O  0.85178125  0.45714455  0.05125490    -0.83900
C2141       C  0.83943603  0.47449294  0.04525526     1.11200
O2142       O  0.99522045  0.35383722  0.02857356    -0.97000
Zr2143     Zr  0.95953155  0.38565015  0.03835359     1.88900
O2144       O  0.85406020  0.36181182  0.05304734    -0.73600
O2145       O  0.87839347  0.45335745  0.02526347    -0.52900
O2146       O  0.90932240  0.35547841  0.02635724    -0.97600
O2147       O  0.96925482  0.31649757  0.04345344    -0.54800
O2148       O  0.87454374  0.32719242  0.04287430    -0.74200
C2149       C  0.84372329  0.32624481  0.04812295     0.98200
O2150       O  0.89346667  0.47174228  0.06631087    -0.63000
O2151       O  0.10883334  0.51347667  0.06601074    -0.57800
O2152       O  0.93099862  0.40725769  0.06669120    -0.94500
O2153       O  0.00922948  0.41682871  0.06704672    -0.92900
O2154       O  0.09520337  0.62131705  0.06262414    -0.93200
O2155       O  0.00503199  0.60797108  0.06227137    -0.92000
C2156       C  0.96464719  0.39985942  0.06989715     1.17000
H2157       H  0.12215901  0.56389166  0.04985205     0.33000
H2158       H  0.93517635  0.54110980  0.04951134     0.43800
H2159       H  0.95697840  0.37389380  0.05481161     0.37400
H2160       H  0.98811461  0.45159823  0.02596075     0.33800
H2161       H  0.03299451  0.67145933  0.05053533     0.25600
H2162       H  0.88059788  0.47634638  0.02097828     0.31600
H2163       H  0.88635044  0.31910125  0.02726050     0.37500
H2164       H  0.09097866  0.59297102  0.06596741     0.31900
H2165       H  0.11794805  0.49074300  0.06879407     0.30800
H2166       H  0.09022992  0.40286720  0.06256150     0.32500
H2167       H  0.94548584  0.30216641  0.04793324     0.31500
H2168       H  0.97888609  0.57618209  0.06466791     0.35500
H2169       H  0.92244116  0.48663219  0.06997190     0.28200
H2170       H  0.15199010  0.56896277  0.02247254     0.32400
H2171       H  0.97046035  0.31759276  0.02797647     0.35300
H2172       H  0.14041293  0.53878238  0.06344421     0.27900
H2173       H  0.89037850  0.50086391  0.06453085     0.40800
H2174       H  0.92140968  0.57286751  0.02673260     0.30800
H2175       H  0.03088910  0.65346114  0.04181313     0.38400
H2176       H  0.00296527  0.33300673  0.04591413     0.30300
H2177       H  0.88861457  0.43061271  0.02277266     0.30300
H2178       H  0.12489160  0.51049433  0.02095037     0.30600
Zr2179     Zr  0.06949062  0.54814399  0.94607576     2.17500
O2180       O  0.10066350  0.52748432  0.93421716    -0.51800
O2181       O  0.14101227  0.63071148  0.94801087    -0.75000
O2182       O  0.06148102  0.58958241  0.93434300    -0.81700
O2183       O  0.11954159  0.48949437  0.96043791    -0.83500
O2184       O  0.98469703  0.58339293  0.93429554    -0.79100
O2185       O  0.13463632  0.52631843  0.94831298    -0.90700
O2186       O  0.12133118  0.66623948  0.95815446    -0.76700
O2187       O  0.02666052  0.59267798  0.94935144    -0.86200
O2188       O  0.08045754  0.56308876  0.95996048    -0.85900
O2189       O  0.98382764  0.49431831  0.94229550    -0.72600
O2190       O  0.03550253  0.46754645  0.95227900    -0.84800
Zr2191     Zr  0.91514165  0.47057163  0.96616196     2.26400
Zr2192     Zr  0.94033386  0.53776893  0.94616913     2.06300
Zr2193     Zr  0.04380111  0.48269976  0.96617249     2.10000
Zr2194     Zr  0.03761655  0.60765238  0.96309279     1.78800
O2195       O  0.02687041  0.39847986  0.96958967    -0.93600
O2196       O  0.02855190  0.67792625  0.95839495    -0.41400
O2197       O  0.00114730  0.52740834  0.96946854    -0.78000
O2198       O  0.95025055  0.55311041  0.96010948    -0.96700
O2199       O  0.90504276  0.45668677  0.95223346    -0.90000
O2200       O  0.95799425  0.42610269  0.96280059    -0.92900
C2201       C  0.15160986  0.66668403  0.95285583     1.00900
C2202       C  0.14525934  0.50567350  0.95403758     1.13800
C2203       C  0.02814605  0.59794739  0.93122760     1.04600
O2204       O  0.92968956  0.61116956  0.94521894    -0.95000
O2205       O  0.85727502  0.51761455  0.95089910    -0.90800
O2206       O  0.85101911  0.49303338  0.96370754    -0.83900
C2207       C  0.83447051  0.50482505  0.95760210     1.11200
O2208       O  0.98847655  0.38806522  0.93868208    -0.97000
Zr2209     Zr  0.94988783  0.41467992  0.94876506     1.88900
O2210       O  0.85236823  0.38048949  0.96465207    -0.73600
O2211       O  0.88697269  0.49686768  0.93478177    -0.52900
O2212       O  0.90383976  0.39020446  0.93634377    -0.97600
O2213       O  0.95180822  0.33868648  0.95242762    -0.54800
O2214       O  0.86578925  0.35672078  0.95265270    -0.74200
C2215       C  0.83907138  0.34942843  0.95881999     0.98200
O2216       O  0.84809537  0.45239873  0.97559393    -0.63000
O2217       O  0.11165070  0.51607377  0.97583550    -0.57800
O2218       O  0.94444197  0.47705855  0.98001883    -0.94500
O2219       O  0.02093550  0.48273025  0.97984101    -0.92900
O2220       O  0.09272988  0.64263019  0.97448085    -0.93200
O2221       O  0.00334121  0.63607184  0.97360693    -0.92000
C2222       C  0.98400620  0.48187803  0.98352320     1.17000
H2223       H  0.11551068  0.58172750  0.96142064     0.33000
H2224       H  0.93269096  0.57028160  0.96180950     0.43800
H2225       H  0.94442027  0.39467187  0.96563597     0.37400
H2226       H  0.98171223  0.48946917  0.93664364     0.33800
H2227       H  0.05064960  0.70643006  0.96187256     0.25600
H2228       H  0.85657070  0.46762759  0.93699184     0.31600
H2229       H  0.88190789  0.35324668  0.93671532     0.37500
H2230       H  0.11197205  0.62459611  0.97464794     0.31900
H2231       H  0.12284339  0.49089735  0.97615999     0.30800
H2232       H  0.05024139  0.39304628  0.96624933     0.32500
H2233       H  0.92588320  0.32220810  0.95657686     0.31500
H2234       H  0.98246210  0.60552985  0.97679964     0.35500
H2235       H  0.84165230  0.42106123  0.97827631     0.28200
H2236       H  0.12728959  0.56012405  0.93211178     0.32400
H2237       H  0.02390148  0.41549532  0.93842784     0.35300
H2238       H  0.13988323  0.54587083  0.97329955     0.27900
H2239       H  0.86280279  0.47891936  0.97968904     0.40800
H2240       H  0.94348830  0.62970450  0.95021531     0.30800
H2241       H  0.04559804  0.68696699  0.95319203     0.38400
H2242       H  0.98409271  0.35099446  0.95523489     0.30300
H2243       H  0.87547026  0.52036312  0.93306809     0.30300
H2244       H  0.07304821  0.51534721  0.93031466     0.30600
Zr2245     Zr  0.45297727  0.92124958  0.03425200     2.17500
O2246       O  0.40093057  0.85807097  0.02447353    -0.51800
O2247       O  0.48637052  0.86383966  0.03552512    -0.75000
O2248       O  0.48255019  0.94347503  0.02060083    -0.81700
O2249       O  0.34279989  0.86462330  0.04853936    -0.83500
O2250       O  0.55140124  0.02135433  0.02043543    -0.79100
O2251       O  0.36816861  0.85321427  0.03649403    -0.90700
O2252       O  0.54038828  0.88681520  0.04584959    -0.76700
O2253       O  0.53913868  0.96506240  0.03793676    -0.86200
O2254       O  0.45516226  0.91062086  0.04819244    -0.85900
O2255       O  0.47888037  0.00699707  0.03068461    -0.72600
O2256       O  0.40342043  0.95445200  0.04003098    -0.84800
Zr2257     Zr  0.52531908  0.07640760  0.05393182     2.26400
Zr2258     Zr  0.56630391  0.04985378  0.03413677     2.06300
Zr2259     Zr  0.40769147  0.94490096  0.05398367     2.10000
Zr2260     Zr  0.54102130  0.95727201  0.05200437     1.78800
O2261       O  0.32435605  0.93457385  0.05584576    -0.93600
O2262       O  0.62974800  0.98297127  0.05107450    -0.41400
O2263       O  0.49383894  0.99099359  0.05800672    -0.78000
O2264       O  0.57279984  0.04214483  0.04812407    -0.96700
O2265       O  0.52072228  0.08588847  0.04006399    -0.90000
O2266       O  0.43832545  0.03111831  0.05059370    -0.92900
C2267       C  0.51674867  0.85811145  0.04005920     1.00900
C2268       C  0.33608309  0.83945284  0.04211865     1.13800
C2269       C  0.51725956  0.98189002  0.01693482     1.04600
O2270       O  0.63113220  0.02726630  0.03213388    -0.95000
O2271       O  0.63387941  0.12733583  0.03956581    -0.90800
O2272       O  0.61012223  0.14567409  0.05128046    -0.83900
C2273       C  0.64247647  0.15458735  0.04576882     1.11200
O2274       O  0.37534305  0.00671278  0.02588931    -0.97000
Zr2275     Zr  0.43373767  0.04157829  0.03693004     1.88900
O2276       O  0.51134310  0.14609997  0.05174114    -0.73600
O2277       O  0.60718677  0.12217857  0.02531973    -0.52900
O2278       O  0.45798368  0.09775246  0.02557367    -0.97600
O2279       O  0.35138313  0.02783188  0.04089862    -0.54800
O2280       O  0.45477035  0.12451493  0.04185319    -0.74200
C2281       C  0.48422506  0.15553639  0.04710006     0.98200
O2282       O  0.57704517  0.10654692  0.06581211    -0.63000
O2283       O  0.39954252  0.88607263  0.06431806    -0.57800
O2284       O  0.47492142  0.06799515  0.06549106    -0.94500
O2285       O  0.40628870  0.98977005  0.06584926    -0.92900
O2286       O  0.51056508  0.89206329  0.06211954    -0.93200
O2287       O  0.58549063  0.98784245  0.06451006    -0.92000
C2288       C  0.43386946  0.03423803  0.06870531     1.17000
H2289       H  0.44090499  0.87548749  0.04954523     0.33000
H2290       H  0.60730034  0.06009707  0.04987782     0.43800
H2291       H  0.41977358  0.04448825  0.05328279     0.37400
H2292       H  0.47244895  0.01117328  0.02525421     0.33800
H2293       H  0.63302006  0.95678219  0.05400242     0.25600
H2294       H  0.62890871  0.11511678  0.02184476     0.31600
H2295       H  0.49264595  0.10560855  0.02431561     0.37500
H2296       H  0.53548709  0.88050830  0.06220540     0.31900
H2297       H  0.42892185  0.90562198  0.06778496     0.30800
H2298       H  0.30455522  0.90168734  0.05852443     0.32500
H2299       H  0.35673316  0.04668352  0.04588656     0.31500
H2300       H  0.56002550  0.98610596  0.06829329     0.35500
H2301       H  0.55801530  0.08168959  0.07000139     0.28200
H2302       H  0.42355790  0.84933006  0.02156186     0.32400
H2303       H  0.35934987  0.02780228  0.02543707     0.35300
H2304       H  0.37038210  0.88126638  0.06749838     0.27900
H2305       H  0.60583231  0.10129050  0.06474545     0.40800
H2306       H  0.63778531  0.03077619  0.02637908     0.30800
H2307       H  0.63495724  0.97753204  0.04547035     0.38400
H2308       H  0.33231960  0.99195714  0.04246380     0.30300
H2309       H  0.58020824  0.11968557  0.02182411     0.30300
H2310       H  0.39071348  0.87539996  0.02058333     0.30600
Zr2311     Zr  0.46888917  0.91432422  0.94653649     2.17500
O2312       O  0.41401229  0.88377041  0.93504085    -0.51800
O2313       O  0.48333617  0.84468538  0.94838671    -0.75000
O2314       O  0.51872257  0.92013400  0.93494412    -0.81700
O2315       O  0.35859148  0.86857954  0.96054945    -0.83500
O2316       O  0.59221571  0.99455271  0.93536939    -0.79100
O2317       O  0.38345085  0.84769543  0.94917250    -0.90700
O2318       O  0.53658772  0.86412406  0.95877714    -0.76700
O2319       O  0.55555568  0.95723240  0.94994165    -0.86200
O2320       O  0.47146132  0.90430852  0.96047414    -0.85900
O2321       O  0.50092180  0.99968879  0.94236673    -0.72600
O2322       O  0.42269337  0.94990486  0.95240030    -0.84800
Zr2323     Zr  0.54486067  0.07114808  0.96600656     2.26400
Zr2324     Zr  0.58728414  0.04325606  0.94636816     2.06300
Zr2325     Zr  0.42810234  0.94283184  0.96635888     2.10000
Zr2326     Zr  0.55849697  0.94738606  0.96371141     1.78800
O2327       O  0.36157433  0.96084939  0.96977133    -0.93600
O2328       O  0.64010254  0.96142130  0.95935581    -0.41400
O2329       O  0.51495975  0.98547028  0.96949562    -0.78000
O2330       O  0.59239518  0.03502774  0.96037807    -0.96700
O2331       O  0.54180010  0.07974439  0.95206602    -0.90000
O2332       O  0.45777563  0.02856309  0.96263369    -0.92900
C2333       C  0.50881905  0.83443860  0.95326516     1.00900
C2334       C  0.35049025  0.84052817  0.95447296     1.13800
C2335       C  0.56252243  0.95161234  0.93221832     1.04600
O2336       O  0.67360690  0.06149638  0.94495711    -0.95000
O2337       O  0.64874752  0.12847793  0.95053048    -0.90800
O2338       O  0.62831640  0.13917024  0.96297638    -0.83900
C2339       C  0.65694607  0.15444711  0.95689413     1.11200
O2340       O  0.39325745  0.99547838  0.93804738    -0.97000
Zr2341     Zr  0.45537759  0.03523515  0.94851650     1.88900
O2342       O  0.51588790  0.13233304  0.96443870    -0.73600
O2343       O  0.59189547  0.09034547  0.93452849    -0.52900
O2344       O  0.47838212  0.08471844  0.93640015    -0.97600
O2345       O  0.37568395  0.03069322  0.95167842    -0.54800
O2346       O  0.48135949  0.12008641  0.95222337    -0.74200
C2347       C  0.50001576  0.14631774  0.95845367     0.98200
O2348       O  0.59428476  0.13384895  0.97602770    -0.63000
O2349       O  0.39189670  0.87557885  0.97615707    -0.57800
O2350       O  0.52393423  0.04229543  0.97980540    -0.94500
O2351       O  0.45289090  0.96634864  0.97999688    -0.92900
O2352       O  0.53583423  0.89397907  0.97539872    -0.93200
O2353       O  0.61464643  0.97604152  0.97505604    -0.92000
C2354       C  0.48980467  0.00344381  0.98349058     1.17000
H2355       H  0.45522046  0.86927888  0.96196717     0.33000
H2356       H  0.62700234  0.05345406  0.96208845     0.43800
H2357       H  0.44007947  0.04267721  0.96537558     0.37400
H2358       H  0.49857892  0.00108259  0.93669018     0.33800
H2359       H  0.64754829  0.94030383  0.96290189     0.25600
H2360       H  0.59016038  0.11989576  0.93648206     0.31600
H2361       H  0.45728083  0.10081469  0.93636799     0.37500
H2362       H  0.49865964  0.87462928  0.97538725     0.31900
H2363       H  0.35577153  0.86515594  0.97639355     0.30800
H2364       H  0.34829316  0.96409763  0.96461713     0.32500
H2365       H  0.37359045  0.05458129  0.94797248     0.31500
H2366       H  0.60397760  0.99639634  0.97819448     0.35500
H2367       H  0.56994127  0.13673594  0.97952412     0.28200
H2368       H  0.42166545  0.85941606  0.93243967     0.32400
H2369       H  0.36869570  0.96191167  0.94015376     0.35300
H2370       H  0.39297314  0.84678056  0.97371260     0.27900
H2371       H  0.61014514  0.11898408  0.97934531     0.40800
H2372       H  0.67494048  0.03446211  0.94795078     0.30800
H2373       H  0.63372155  0.94456166  0.95415091     0.38400
H2374       H  0.38062324  0.04693546  0.95690636     0.30300
H2375       H  0.62687558  0.10421303  0.93264298     0.30300
H2376       H  0.42717113  0.91283909  0.93138689     0.30600
C2377       C  0.49601601  0.99857938  0.99212678    -0.00600
C2378       C  0.54474880  0.02267926  0.99534864    -0.12500
C2379       C  0.55325163  0.01564831  0.00327126     0.01700
C2380       C  0.51244896  0.98396759  0.00821121    -0.00700
C2381       C  0.46383963  0.95923608  0.00495127    -0.12400
C2382       C  0.45526471  0.96640320  0.99706025     0.01500
H2383       H  0.57667781  0.04639496  0.99162095     0.14500
H2384       H  0.43177596  0.93580191  0.00867435     0.14500
C2385       C  0.40386894  0.94177359  0.99432915     0.36200
C2386       C  0.60439129  0.04067229  0.00609495     0.36100
N2387       N  0.36266860  0.92203502  0.99215965    -0.44200
N2388       N  0.64549838  0.06081533  0.00830762    -0.44200
C2389       C  0.70226069  0.20557570  0.95738394    -0.00600
C2390       C  0.72248896  0.22609270  0.96486454    -0.12500
C2391       C  0.76551475  0.27387855  0.96562543     0.01700
C2392       C  0.78975154  0.30187409  0.95879025    -0.00700
C2393       C  0.76786518  0.28241353  0.95137648    -0.12400
C2394       C  0.72477878  0.23530056  0.95061387     0.01500
H2395       H  0.70511944  0.20442146  0.97016235     0.14500
H2396       H  0.78469791  0.30423619  0.94606364     0.14500
C2397       C  0.70394443  0.21962400  0.94280095     0.36200
C2398       C  0.78430775  0.29250478  0.97344408     0.36100
N2399       N  0.68757225  0.20763455  0.93651053    -0.44200
N2400       N  0.79896846  0.30761511  0.97972213    -0.44200
C2401       C  0.20259252  0.71128052  0.95253468    -0.00600
C2402       C  0.20865482  0.75766335  0.95498052    -0.12500
C2403       C  0.25620933  0.80020884  0.95552213     0.01700
C2404       C  0.29932962  0.79704651  0.95355001    -0.00700
C2405       C  0.29337056  0.75112497  0.95083362    -0.12400
C2406       C  0.24561678  0.70826131  0.95034644     0.01500
H2407       H  0.17596765  0.76068310  0.95654991     0.14500
H2408       H  0.32626471  0.74829298  0.94934043     0.14500
C2409       C  0.24246912  0.66143567  0.94798555     0.36200
C2410       C  0.25907279  0.84663641  0.95800164     0.36100
N2411       N  0.24009103  0.62402860  0.94608028    -0.44200
N2412       N  0.26043281  0.88337785  0.96001182    -0.44200
C2413       C  0.69410237  0.19777886  0.04671116    -0.00600
C2414       C  0.70140438  0.24241839  0.05019800    -0.12500
C2415       C  0.74968572  0.28430664  0.05095671     0.01700
C2416       C  0.79219345  0.28178255  0.04824572    -0.00700
C2417       C  0.78474530  0.23642913  0.04499958    -0.12400
C2418       C  0.73658250  0.19486196  0.04419792     0.01500
H2419       H  0.66912642  0.24506850  0.05214256     0.14500
H2420       H  0.81673402  0.23346886  0.04297988     0.14500
C2421       C  0.73214616  0.14947644  0.04084160     0.36200
C2422       C  0.75361164  0.32958757  0.05426024     0.36100
N2423       N  0.72845489  0.11315080  0.03811834    -0.44200
N2424       N  0.75614594  0.36548532  0.05695658    -0.44200
C2425       C  0.19278003  0.70203783  0.04007208    -0.00600
C2426       C  0.23576761  0.70486242  0.03664051    -0.12500
C2427       C  0.28258559  0.74926470  0.03703075     0.01700
C2428       C  0.28737315  0.79200859  0.04107118    -0.00700
C2429       C  0.24404350  0.78985163  0.04416260    -0.12400
C2430       C  0.19719157  0.74614333  0.04360642     0.01500
H2431       H  0.23328525  0.67174245  0.03388111     0.14500
H2432       H  0.24669558  0.82283211  0.04700842     0.14500
C2433       C  0.15465910  0.74862390  0.04671741     0.36200
C2434       C  0.32483592  0.74877999  0.03339590     0.36100
N2435       N  0.12141986  0.75192922  0.04926005    -0.44200
N2436       N  0.35773269  0.74730897  0.03031506    -0.44200
C2437       C  0.00895078  0.51769476  0.00853659    -0.00600
C2438       C  0.95970795  0.48901064  0.00554822    -0.12500
C2439       C  0.95028859  0.47572469  0.99755794     0.01700
C2440       C  0.99069680  0.49165927  0.99221737    -0.00700
C2441       C  0.04004884  0.51993565  0.99520938    -0.12400
C2442       C  0.04946348  0.53285844  0.00323391     0.01500
H2443       H  0.92790917  0.47509006  0.00953024     0.14500
H2444       H  0.07182672  0.53303713  0.99122403     0.14500
C2445       C  0.10102214  0.56321451  0.00570965     0.36200
C2446       C  0.89880532  0.44323803  0.99521488     0.36100
N2447       N  0.14269488  0.58787402  0.00751105    -0.44200
N2448       N  0.85709820  0.41673752  0.99360407    -0.44200
C2449       C  0.78464530  0.50124638  0.95826031    -0.00600
C2450       C  0.75228105  0.48262007  0.95176288    -0.12500
C2451       C  0.70359060  0.47496203  0.95216933     0.01700
C2452       C  0.68658642  0.48740144  0.95912080    -0.00700
C2453       C  0.71845535  0.50540229  0.96569897    -0.12400
C2454       C  0.76734681  0.51256626  0.96531532     0.01500
H2455       H  0.76460908  0.47268211  0.94638804     0.14500
H2456       H  0.70596730  0.51584520  0.97100286     0.14500
C2457       C  0.79999622  0.53438266  0.97204667     0.36200
C2458       C  0.67107949  0.45253062  0.94542828     0.36100
N2459       N  0.82662491  0.55224271  0.97738161    -0.44200
N2460       N  0.64494443  0.43411641  0.94005849    -0.44200
C2461       C  0.19062703  0.50044900  0.95342659    -0.00600
C2462       C  0.21978064  0.50913889  0.96025134    -0.12500
C2463       C  0.26158657  0.50243273  0.96023440     0.01700
C2464       C  0.27440700  0.48552344  0.95333215    -0.00700
C2465       C  0.24648588  0.47834275  0.94642013    -0.12400
C2466       C  0.20485368  0.48572423  0.94639939     0.01500
H2467       H  0.21017093  0.52183546  0.96561953     0.14500
H2468       H  0.25677291  0.46618776  0.94106287     0.14500
C2469       C  0.17675476  0.47615348  0.93916232     0.36200
C2470       C  0.29228258  0.51565436  0.96725833     0.36100
N2471       N  0.15497486  0.46827279  0.93327601    -0.44200
N2472       N  0.31731344  0.52674357  0.97283644    -0.44200
C2473       C  0.49490742  0.28370156  0.95783341    -0.00600
C2474       C  0.51633193  0.27107762  0.95154568    -0.12500
C2475       C  0.52071665  0.22782555  0.95185656     0.01700
C2476       C  0.50293967  0.19586118  0.95853293    -0.00700
C2477       C  0.48343120  0.20940054  0.96495932    -0.12400
C2478       C  0.47910928  0.25281667  0.96465944     0.01500
H2479       H  0.52996898  0.29524948  0.94638553     0.14500
H2480       H  0.46945635  0.18484220  0.97007014     0.14500
C2481       C  0.45527090  0.26283335  0.97122157     0.36200
C2482       C  0.54471744  0.21766986  0.94531679     0.36100
N2483       N  0.43583080  0.27066581  0.97645425    -0.44200
N2484       N  0.56415782  0.20973349  0.94009363    -0.44200
C2485       C  0.48520510  0.68392504  0.95298838    -0.00600
C2486       C  0.53214723  0.72430792  0.95520424    -0.12500
C2487       C  0.54169633  0.77385573  0.95496922     0.01700
C2488       C  0.50317036  0.78367259  0.95272300    -0.00700
C2489       C  0.45673906  0.74339129  0.95022027    -0.12400
C2490       C  0.44756526  0.69383952  0.95028329     0.01500
H2491       H  0.56182497  0.71712348  0.95706096     0.14500
H2492       H  0.42682802  0.75037019  0.94843010     0.14500
C2493       C  0.39862483  0.65400580  0.94788224     0.36200
C2494       C  0.59195635  0.81374587  0.95670971     0.36100
N2495       N  0.35940172  0.62232846  0.94591622    -0.44200
N2496       N  0.63254523  0.84537312  0.95801717    -0.44200
C2497       C  0.71002780  0.49364625  0.04687304    -0.00600
C2498       C  0.72544528  0.48534008  0.03951338    -0.12500
C2499       C  0.76600229  0.47705049  0.03883879     0.01700
C2500       C  0.79237645  0.47684334  0.04569054    -0.00700
C2501       C  0.77570219  0.48340261  0.05310969    -0.12400
C2502       C  0.73516981  0.49216296  0.05375077     0.01500
H2503       H  0.70557681  0.48537598  0.03421408     0.14500
H2504       H  0.79585023  0.48409737  0.05841056     0.14500
C2505       C  0.72305513  0.50350024  0.06144582     0.36200
C2506       C  0.77868877  0.46859824  0.03098657     0.36100
N2507       N  0.71427003  0.51310477  0.06764568    -0.44200
N2508       N  0.78740268  0.46211364  0.02458120    -0.44200
C2509       C  0.30928337  0.51535333  0.04190394    -0.00600
C2510       C  0.27629939  0.49375931  0.03552465    -0.12500
C2511       C  0.22697228  0.48542884  0.03591637     0.01700
C2512       C  0.21008984  0.49895126  0.04280049    -0.00700
C2513       C  0.24373707  0.52184058  0.04905791    -0.12400
C2514       C  0.29292778  0.53066819  0.04863444     0.01500
H2515       H  0.28823535  0.48114873  0.03039853     0.14500
H2516       H  0.23187688  0.53392422  0.05425801     0.14500
C2517       C  0.32629371  0.55688458  0.05513663     0.36200
C2518       C  0.19365316  0.46015234  0.02938304     0.36100
N2519       N  0.35260619  0.57834845  0.06036011    -0.44200
N2520       N  0.16689556  0.43966880  0.02415815    -0.44200
C2521       C  0.48760684  0.20580976  0.04769857    -0.00600
C2522       C  0.45401521  0.21433113  0.04324599    -0.12500
C2523       C  0.45744416  0.26151834  0.04303181     0.01700
C2524       C  0.49603838  0.30260950  0.04724988    -0.00700
C2525       C  0.52789992  0.29356534  0.05207427    -0.12400
C2526       C  0.52403920  0.24596774  0.05237324     0.01500
H2527       H  0.42473899  0.18395833  0.03982905     0.14500
H2528       H  0.55696688  0.32416323  0.05548284     0.14500
C2529       C  0.55862220  0.24021705  0.05746183     0.36200
C2530       C  0.41981540  0.26565065  0.03850067     0.36100
N2531       N  0.58593645  0.23514221  0.06156057    -0.44200
N2532       N  0.38932160  0.26816815  0.03484418    -0.44200
C2533       C  0.52196982  0.72157604  0.04077289    -0.00600
C2534       C  0.56611318  0.76736155  0.04204977    -0.12500
C2535       C  0.56667441  0.81304226  0.04115340     0.01700
C2536       C  0.52206149  0.81312504  0.03906702    -0.00700
C2537       C  0.47882681  0.76738226  0.03734156    -0.12400
C2538       C  0.47828454  0.72181581  0.03819128     0.01500
H2539       H  0.60014135  0.76739564  0.04377988     0.14500
H2540       H  0.44437096  0.76695490  0.03584983     0.14500
C2541       C  0.43133595  0.67577482  0.03692917     0.36200
C2542       C  0.61353333  0.85908967  0.04241756     0.36100
N2543       N  0.39378493  0.63887442  0.03592094    -0.44200
N2544       N  0.65138579  0.89564588  0.04343508    -0.44200
C2545       C  0.49402372  0.49421425  0.99218197    -0.00600
C2546       C  0.47382708  0.44727850  0.99600202    -0.12500
C2547       C  0.46032878  0.44149610  0.00405357     0.01700
C2548       C  0.46703551  0.48339046  0.00858138    -0.00700
C2549       C  0.48593916  0.52994695  0.00469095    -0.12400
C2550       C  0.49983553  0.53587866  0.99668954     0.01500
H2551       H  0.46779019  0.41453296  0.99266009     0.14500
H2552       H  0.49223589  0.56288715  0.00799686     0.14500
C2553       C  0.52209434  0.58607925  0.99344254     0.36200
C2554       C  0.43915490  0.39179434  0.00743987     0.36100
N2555       N  0.54001653  0.62647893  0.99091550    -0.44200
N2556       N  0.42216418  0.35187522  0.01012598    -0.44200
C2557       C  0.95037784  0.36790148  0.07718436    -0.00600
C2558       C  0.98796333  0.36507837  0.08153322    -0.12500
C2559       C  0.97637969  0.33400762  0.08821508     0.01700
C2560       C  0.92590113  0.30466617  0.09076671    -0.00700
C2561       C  0.88836266  0.30717831  0.08637018    -0.12400
C2562       C  0.89976438  0.33809059  0.07972288     0.01500
H2563       H  0.02692048  0.38736752  0.07972400     0.14500
H2564       H  0.84931088  0.28469242  0.08813033     0.14500
C2565       C  0.85796505  0.33756406  0.07570377     0.36200
C2566       C  0.01760054  0.33398303  0.09229285     0.36100
N2567       N  0.82421379  0.33706220  0.07257341    -0.44200
N2568       N  0.05147355  0.33457234  0.09538772    -0.44200
C2569       C  0.82322827  0.14023189  0.17504238    -0.00600
C2570       C  0.80776478  0.16770640  0.17037519    -0.12500
C2571       C  0.80601937  0.16369029  0.16212618     0.01700
C2572       C  0.81873499  0.13031230  0.15826683    -0.00700
C2573       C  0.83361251  0.10219233  0.16294708    -0.12400
C2574       C  0.83528457  0.10629432  0.17124277     0.01500
H2575       H  0.79880860  0.19414829  0.17317432     0.14500
H2576       H  0.84342080  0.07646771  0.16012311     0.14500
C2577       C  0.84713220  0.07338316  0.17569411     0.36200
C2578       C  0.79490107  0.19778055  0.15787388     0.36100
N2579       N  0.85622159  0.04657381  0.17922540    -0.44200
N2580       N  0.78640302  0.22621909  0.15472869    -0.44200
C2581       C  0.05584109  0.17420636  0.12555987    -0.00600
C2582       C  0.10199656  0.21868771  0.12470571    -0.12500
C2583       C  0.14734006  0.21875964  0.12571048     0.01700
C2584       C  0.14702910  0.17335355  0.12738924    -0.00700
C2585       C  0.10089751  0.12937556  0.12861696    -0.12400
C2586       C  0.05552092  0.12937638  0.12768997     0.01500
H2587       H  0.10261453  0.25356962  0.12333161     0.14500
H2588       H  0.10017785  0.09423249  0.12980922     0.14500
C2589       C  0.00930136  0.08191310  0.12830177     0.36200
C2590       C  0.19366133  0.26625557  0.12525517     0.36100
N2591       N  0.97257798  0.04354692  0.12873200    -0.44200
N2592       N  0.23050056  0.30463387  0.12502330    -0.44200
C2593       C  0.64873340  0.17240943  0.11970002    -0.00600
C2594       C  0.61044426  0.13358594  0.12416871    -0.12500
C2595       C  0.56109971  0.12397884  0.12392941     0.01700
C2596       C  0.54868925  0.15467376  0.11927731    -0.00700
C2597       C  0.58667892  0.19279631  0.11462866    -0.12400
C2598       C  0.63615647  0.20169832  0.11475317     0.01500
H2599       H  0.61871037  0.10952540  0.12782189     0.14500
H2600       H  0.57806965  0.21652658  0.11096159     0.14500
C2601       C  0.67278501  0.24153922  0.10981849     0.36200
C2602       C  0.52432125  0.08115317  0.12838681     0.36100
N2603       N  0.70148230  0.27318803  0.10574931    -0.44200
N2604       N  0.49516290  0.04660782  0.13194312    -0.44200
C2605       C  0.39083735  0.08381204  0.08993558    -0.00600
C2606       C  0.35879681  0.03552332  0.08683992    -0.12500
C2607       C  0.37146195  0.01814663  0.08001596     0.01700
C2608       C  0.41765472  0.04917509  0.07609343    -0.00700
C2609       C  0.44935233  0.09756583  0.07916779    -0.12400
C2610       C  0.43657280  0.11520420  0.08589459     0.01500
H2611       H  0.32358779  0.01073051  0.08979209     0.14500
H2612       H  0.48472920  0.12255492  0.07627320     0.14500
C2613       C  0.47157024  0.16618258  0.08831597     0.36200
C2614       C  0.33571147  0.96851023  0.07721242     0.36100
N2615       N  0.50005493  0.20704315  0.09016015    -0.44200
N2616       N  0.30682055  0.92876393  0.07497143    -0.44200
C2617       C  0.32931308  0.15427378  0.17521486    -0.00600
C2618       C  0.37364188  0.17658357  0.17074803    -0.12500
C2619       C  0.37296483  0.18412417  0.16260141     0.01700
C2620       C  0.32718446  0.17113868  0.15868893    -0.00700
C2621       C  0.28278110  0.14923315  0.16318499    -0.12400
C2622       C  0.28334823  0.14076528  0.17133743     0.01500
H2623       H  0.40908633  0.18663734  0.17359160     0.14500
H2624       H  0.24728627  0.13845022  0.16030871     0.14500
C2625       C  0.23616905  0.11976626  0.17553216     0.36200
C2626       C  0.41948174  0.20065200  0.15840353     0.36100
N2627       N  0.19784525  0.10301577  0.17873939    -0.44200
N2628       N  0.45716957  0.21290426  0.15521097    -0.44200
C2629       C  0.61422274  0.14061398  0.20851469    -0.00600
C2630       C  0.56907386  0.09693155  0.21027138    -0.12500
C2631       C  0.52296670  0.09536543  0.20943518     0.01700
C2632       C  0.52124148  0.13878158  0.20695296    -0.00700
C2633       C  0.56658330  0.18206983  0.20491529    -0.12400
C2634       C  0.61282626  0.18338743  0.20571169     0.01500
H2635       H  0.56980711  0.06358067  0.21223369     0.14500
H2636       H  0.56622001  0.21586320  0.20312257     0.14500
C2637       C  0.65842737  0.23038271  0.20427041     0.36200
C2638       C  0.47811346  0.04794003  0.21099298     0.36100
N2639       N  0.69481081  0.26836027  0.20321331    -0.44200
N2640       N  0.44277874  0.00937122  0.21220376    -0.44200
C2641       C  0.11567030  0.15039296  0.21394050    -0.00600
C2642       C  0.08523461  0.12497218  0.20744511    -0.12500
C2643       C  0.03472419  0.11241037  0.20722960     0.01700
C2644       C  0.01407717  0.12637506  0.21353732    -0.00700
C2645       C  0.04372744  0.14937927  0.22023450    -0.12400
C2646       C  0.09423198  0.16148657  0.22047984     0.01500
H2647       H  0.10085080  0.11417014  0.20256904     0.14500
H2648       H  0.02819026  0.16022932  0.22511544     0.14500
C2649       C  0.12418549  0.18878810  0.22721835     0.36200
C2650       C  0.00430383  0.08297058  0.20065958     0.36100
N2651       N  0.14809735  0.21141865  0.23258436    -0.44200
N2652       N  0.98007132  0.05855168  0.19544582    -0.44200
C2653       C  0.83459058  0.87163342  0.12482129    -0.00600
C2654       C  0.85842115  0.90508753  0.11856479    -0.12500
C2655       C  0.86579114  0.95375645  0.11877113     0.01700
C2656       C  0.84852896  0.96961611  0.12531392    -0.00700
C2657       C  0.82573681  0.93667465  0.13168578    -0.12400
C2658       C  0.81853436  0.88773732  0.13147623     0.01500
H2659       H  0.87195536  0.89332062  0.11352595     0.14500
H2660       H  0.81156800  0.94836307  0.13664649     0.14500
C2661       C  0.79189587  0.85378418  0.13789681     0.36200
C2662       C  0.89202983  0.98701897  0.11223652     0.36100
N2663       N  0.77032665  0.82624637  0.14300061    -0.44200
N2664       N  0.91320953  0.01356029  0.10700780    -0.44200
C2665       C  0.82858458  0.46352508  0.12030850    -0.00600
C2666       C  0.87298735  0.46722463  0.12326265    -0.12500
C2667       C  0.88106377  0.42635480  0.12307613     0.01700
C2668       C  0.84383433  0.37984843  0.11994494    -0.00700
C2669       C  0.79976967  0.37640114  0.11681609    -0.12400
C2670       C  0.79191243  0.41773512  0.11693442     0.01500
H2671       H  0.90200073  0.50260986  0.12569578     0.14500
H2672       H  0.77075573  0.34092890  0.11448726     0.14500
C2673       C  0.74511794  0.41144521  0.11391708     0.36200
C2674       C  0.92868107  0.43411234  0.12595896     0.36100
N2675       N  0.70771129  0.40666286  0.11150992    -0.44200
N2676       N  0.96690832  0.44056499  0.12826709    -0.44200
C2677       C  0.13504978  0.94628000  0.12544522    -0.00600
C2678       C  0.09363505  0.94877986  0.12850622    -0.12500
C2679       C  0.04585425  0.90574651  0.12898197     0.01700
C2680       C  0.03923608  0.85873663  0.12656830    -0.00700
C2681       C  0.08121796  0.85596301  0.12389983    -0.12400
C2682       C  0.12862089  0.89898876  0.12328181     0.01500
H2683       H  0.09806630  0.98496443  0.13017080     0.14500
H2684       H  0.07672013  0.81994947  0.12210374     0.14500
C2685       C  0.16994829  0.89314316  0.12052631     0.36200
C2686       C  0.00381057  0.91179075  0.13127967     0.36100
N2687       N  0.20273723  0.88784176  0.11833288    -0.44200
N2688       N  0.97017742  0.91692224  0.13303849    -0.44200
C2689       C  0.62612663  0.45218102  0.12129032    -0.00600
C2690       C  0.60729769  0.42777250  0.11403704    -0.12500
C2691       C  0.56624690  0.37872806  0.11370365     0.01700
C2692       C  0.54262163  0.35306724  0.12077319    -0.00700
C2693       C  0.56251367  0.37734742  0.12802296    -0.12400
C2694       C  0.60395918  0.42589925  0.12835555     0.01500
H2695       H  0.62438755  0.44734879  0.10856729     0.14500
H2696       H  0.54601793  0.35803297  0.13352629     0.14500
C2697       C  0.62446409  0.44616149  0.13604665     0.36200
C2698       C  0.54892098  0.35704800  0.10598981     0.36100
N2699       N  0.64085182  0.46155006  0.14224029    -0.44200
N2700       N  0.53622744  0.34081184  0.09970601    -0.44200
C2701       C  0.63925826  0.58531975  0.07656441    -0.00600
C2702       C  0.65249875  0.55176243  0.07999587    -0.12500
C2703       C  0.68269867  0.56418867  0.08675819     0.01700
C2704       C  0.70133639  0.61196096  0.09043119    -0.00700
C2705       C  0.68784139  0.64560807  0.08703133    -0.12400
C2706       C  0.65681447  0.63270289  0.08029513     0.01500
H2707       H  0.63905808  0.51490526  0.07739641     0.14500
H2708       H  0.70074857  0.68210493  0.08973056     0.14500
C2709       C  0.64240293  0.66844700  0.07760496     0.36200
C2710       C  0.69332711  0.52621498  0.08968657     0.36100
N2711       N  0.63040453  0.69696094  0.07556126    -0.44200
N2712       N  0.70146500  0.49540165  0.09197402    -0.44200
C2713       C  0.04765599  0.85534005  0.21524949    -0.00600
C2714       C  0.09175919  0.86300637  0.21149687    -0.12500
C2715       C  0.13487980  0.91060206  0.21122808     0.01700
C2716       C  0.13450352  0.95271613  0.21460789    -0.00700
C2717       C  0.09153003  0.94461542  0.21879927    -0.12400
C2718       C  0.04857962  0.89661780  0.21921063     0.01500
H2719       H  0.09263842  0.83160097  0.20869706     0.14500
H2720       H  0.09085761  0.97616136  0.22158326     0.14500
C2721       C  0.00592673  0.89150184  0.22359856     0.36200
C2722       C  0.17931311  0.91448235  0.20761203     0.36100
N2723       N  0.97190758  0.88705896  0.22720553    -0.44200
N2724       N  0.21485683  0.91717774  0.20476076    -0.44200
C2725       C  0.53725804  0.35830464  0.20874054    -0.00600
C2726       C  0.57342968  0.36851853  0.21457574    -0.12500
C2727       C  0.62155089  0.41056569  0.21400747     0.01700
C2728       C  0.63409742  0.44427945  0.20758938    -0.00700
C2729       C  0.59842607  0.43378200  0.20164639    -0.12400
C2730       C  0.55028158  0.39103275  0.20215802     0.01500
H2731       H  0.56432215  0.34304039  0.21954362     0.14500
H2732       H  0.60744363  0.45997263  0.19678466     0.14500
C2733       C  0.51406299  0.38295684  0.19608372     0.36200
C2734       C  0.65792601  0.41776691  0.22002258     0.36100
N2735       N  0.48480078  0.37625537  0.19124116    -0.44200
N2736       N  0.68708475  0.42310087  0.22480473    -0.44200
C2737       C  0.82082467  0.83730538  0.21565411    -0.00600
C2738       C  0.85983941  0.88218365  0.21873896    -0.12500
C2739       C  0.85612572  0.92577692  0.21907882     0.01700
C2740       C  0.81172382  0.92455449  0.21642430    -0.00700
C2741       C  0.77122769  0.87849991  0.21388847    -0.12400
C2742       C  0.77546972  0.83518865  0.21344720     0.01500
H2743       H  0.89472237  0.88409980  0.22042193     0.14500
H2744       H  0.73656093  0.87661071  0.21200718     0.14500
C2745       C  0.73301206  0.78932664  0.21058758     0.36200
C2746       C  0.90026936  0.97159142  0.22155563     0.36100
N2747       N  0.69925056  0.75255517  0.20824505    -0.44200
N2748       N  0.93614909  0.00782974  0.22352094    -0.44200
C2749       C  0.81879330  0.33969051  0.20772748    -0.00600
C2750       C  0.81545801  0.35953328  0.21504221    -0.12500
C2751       C  0.81910672  0.40656677  0.21564895     0.01700
C2752       C  0.82663812  0.43590636  0.20879827    -0.00700
C2753       C  0.82722059  0.41498343  0.20138623    -0.12400
C2754       C  0.82304813  0.36718326  0.20079919     0.01500
H2755       H  0.81020151  0.33810946  0.22041389     0.14500
H2756       H  0.83170690  0.43626067  0.19603272     0.14500
C2757       C  0.82402223  0.34773423  0.19307424     0.36200
C2758       C  0.81397051  0.42265942  0.22344293     0.36100
N2759       N  0.82417239  0.33162160  0.18689512    -0.44200
N2760       N  0.80982961  0.43478984  0.22974351    -0.44200
C2761       C  0.83241938  0.65342051  0.17496121    -0.00600
C2762       C  0.85853153  0.63159245  0.17141310    -0.12500
C2763       C  0.87445013  0.64136797  0.16347358     0.01700
C2764       C  0.86455257  0.67395828  0.15881148    -0.00700
C2765       C  0.83909815  0.69628068  0.16241525    -0.12400
C2766       C  0.82294424  0.68629522  0.17031611     0.01500
H2767       H  0.86730605  0.60724032  0.17488928     0.14500
H2768       H  0.82968409  0.72017400  0.15894434     0.14500
C2769       C  0.79507250  0.70914770  0.17337909     0.36200
C2770       C  0.90126048  0.61760702  0.16033381     0.36100
N2771       N  0.77282746  0.72749859  0.17585410    -0.44200
N2772       N  0.92270653  0.59835996  0.15787865    -0.44200
C2773       C  0.70826998  0.95491878  0.25764385    -0.00600
C2774       C  0.75963714  0.98989192  0.25666702    -0.12500
C2775       C  0.77790562  0.02062689  0.24996059     0.01700
C2776       C  0.74448743  0.01758314  0.24395232    -0.00700
C2777       C  0.69276873  0.98402366  0.24505194    -0.12400
C2778       C  0.67455047  0.95251265  0.25173065     0.01500
H2779       H  0.78613807  0.99337950  0.26120202     0.14500
H2780       H  0.66646621  0.98082618  0.24050607     0.14500
C2781       C  0.62166879  0.91593180  0.25202117     0.36200
C2782       C  0.83114421  0.05572971  0.24964966     0.36100
N2783       N  0.57927810  0.88643903  0.25210788    -0.44200
N2784       N  0.87399016  0.08336306  0.24972185    -0.44200
C2785       C  0.65957922  0.81322816  0.32530959    -0.00600
C2786       C  0.63539723  0.83707555  0.32882967    -0.12500
C2787       C  0.64344827  0.85205826  0.33678078     0.01700
C2788       C  0.67607186  0.84277960  0.34149817    -0.00700
C2789       C  0.70091034  0.81973744  0.33794065    -0.12400
C2790       C  0.69296935  0.80486328  0.32999900     0.01500
H2791       H  0.61076341  0.84514910  0.32530677     0.14500
H2792       H  0.72512618  0.81108436  0.34146532     0.14500
C2793       C  0.71816550  0.77911462  0.32699602     0.36200
C2794       C  0.61845319  0.87789592  0.33983647     0.36100
N2795       N  0.73853271  0.75843679  0.32468272    -0.44200
N2796       N  0.59842869  0.89877189  0.34221238    -0.44200
C2797       C  0.95580557  0.80444302  0.37327818    -0.00600
C2798       C  0.91544469  0.76305841  0.37706517    -0.12500
C2799       C  0.86822329  0.75915642  0.37772278     0.01700
C2800       C  0.86051136  0.79734006  0.37459177    -0.00700
C2801       C  0.89955608  0.83663500  0.37026424    -0.12400
C2802       C  0.94679596  0.84039214  0.36954600     0.01500
H2803       H  0.92106607  0.73395661  0.37969743     0.14500
H2804       H  0.89374086  0.86565951  0.36765201     0.14500
C2805       C  0.98548516  0.88267626  0.36525066     0.36200
C2806       C  0.82814551  0.71483662  0.38141541     0.36100
N2807       N  0.01607245  0.91650347  0.36173869    -0.44200
N2808       N  0.79613538  0.67884479  0.38429199    -0.44200
C2809       C  0.37105338  0.81340822  0.37950850    -0.00600
C2810       C  0.39146264  0.81325506  0.37209576    -0.12500
C2811       C  0.43089011  0.80313192  0.37130930     0.01700
C2812       C  0.45172293  0.79329942  0.37809934    -0.00700
C2813       C  0.43024089  0.79187745  0.38550523    -0.12400
C2814       C  0.39037173  0.80166831  0.38626725     0.01500
H2815       H  0.37612273  0.82060868  0.36681740     0.14500
H2816       H  0.44561100  0.78462275  0.39078445     0.14500
C2817       C  0.37150569  0.80090818  0.39410527     0.36200
C2818       C  0.44837122  0.80294417  0.36338806     0.36100
N2819       N  0.35667953  0.79977067  0.40043225    -0.44200
N2820       N  0.46173751  0.80326440  0.35698228    -0.44200
C2821       C  0.35078327  0.80616375  0.29279044    -0.00600
C2822       C  0.38257410  0.82434803  0.29938206    -0.12500
C2823       C  0.43134119  0.83094783  0.29908728     0.01700
C2824       C  0.44891466  0.81947819  0.29207198    -0.00700
C2825       C  0.41622939  0.79955580  0.28562839    -0.12400
C2826       C  0.36763905  0.79240545  0.28595108     0.01500
H2827       H  0.37014637  0.83537432  0.30463087     0.14500
H2828       H  0.42850744  0.78887607  0.28032223     0.14500
C2829       C  0.33554440  0.77023917  0.27916356     0.36200
C2830       C  0.46334376  0.85195273  0.30590522     0.36100
N2831       N  0.31003184  0.75231956  0.27371457    -0.44200
N2832       N  0.48898359  0.86891101  0.31136936    -0.44200
C2833       C  0.93668598  0.80173424  0.28506853    -0.00600
C2834       C  0.94193651  0.84787094  0.28248050    -0.12500
C2835       C  0.90136830  0.85676714  0.28269103     0.01700
C2836       C  0.85445362  0.81910765  0.28557601    -0.00700
C2837       C  0.84857099  0.77241536  0.28781379    -0.12400
C2838       C  0.88872561  0.76318279  0.28751027     0.01500
H2839       H  0.97831003  0.87793113  0.28055428     0.14500
H2840       H  0.81216874  0.74280947  0.28983183     0.14500
C2841       C  0.87886992  0.71344276  0.28963189     0.36200
C2842       C  0.90972548  0.90570018  0.28035261     0.36100
N2843       N  0.87023190  0.67332100  0.29131950    -0.44200
N2844       N  0.91663019  0.94497566  0.27848069    -0.44200
C2845       C  0.15418593  0.80955810  0.32549596    -0.00600
C2846       C  0.13207550  0.76207389  0.32917464    -0.12500
C2847       C  0.11879851  0.75615706  0.33722972     0.01700
C2848       C  0.12733466  0.79833167  0.34183923    -0.00700
C2849       C  0.14897739  0.84560438  0.33810933    -0.12400
C2850       C  0.16280633  0.85168531  0.33012166     0.01500
H2851       H  0.12435347  0.72916624  0.32572355     0.14500
H2852       H  0.15742713  0.87880221  0.34153285     0.14500
C2853       C  0.18792457  0.90228317  0.32697758     0.36200
C2854       C  0.09587409  0.70619431  0.34055689     0.36100
N2855       N  0.20809835  0.94282027  0.32447297    -0.44200
N2856       N  0.07753466  0.66617828  0.34324142    -0.44200
C2857       C  0.01221500  0.72414305  0.25811444    -0.00600
C2858       C  0.00979725  0.68434773  0.25360465    -0.12500
C2859       C  0.98134882  0.66771104  0.24661300     0.01700
C2860       C  0.95441535  0.69125170  0.24388444    -0.00700
C2861       C  0.95484527  0.72926176  0.24861913    -0.12400
C2862       C  0.98249743  0.74526258  0.25565960     0.01500
H2863       H  0.03121894  0.66669387  0.25543411     0.14500
H2864       H  0.93320780  0.74677800  0.24683263     0.14500
C2865       C  0.97812054  0.78245911  0.26030926     0.36200
C2866       C  0.98225366  0.62757416  0.24228337     0.36100
N2867       N  0.97432456  0.81204247  0.26404379    -0.44200
N2868       N  0.98311280  0.59529362  0.23886551    -0.44200
C2869       C  0.85591341  0.01063919  0.37464867    -0.00600
C2870       C  0.86878420  0.04187635  0.36798225    -0.12500
C2871       C  0.91054891  0.09080430  0.36813160     0.01700
C2872       C  0.93996656  0.10899002  0.37507212    -0.00700
C2873       C  0.92738750  0.07715024  0.38164601    -0.12400
C2874       C  0.88629161  0.02840895  0.38146945     0.01500
H2875       H  0.84527844  0.02868509  0.36276073     0.14500
H2876       H  0.95051372  0.09002359  0.38691480     0.14500
C2877       C  0.87702848  0.99681419  0.38832057     0.36200
C2878       C  0.92090631  0.12215357  0.36122999     0.36100
N2879       N  0.87011272  0.97167542  0.39381137    -0.44200
N2880       N  0.92896503  0.14718058  0.35568992    -0.44200
C2881       C  0.34951598  0.51019668  0.37997091    -0.00600
C2882       C  0.38670798  0.50857753  0.37528564    -0.12500
C2883       C  0.43675102  0.54741865  0.37539034     0.01700
C2884       C  0.45106139  0.59006144  0.38024434    -0.00700
C2885       C  0.41439909  0.59045002  0.38523185    -0.12400
C2886       C  0.36433827  0.55133168  0.38516199     0.01500
H2887       H  0.37678341  0.47660019  0.37145298     0.14500
H2888       H  0.42434200  0.62225992  0.38909859     0.14500
C2889       C  0.32928026  0.55602302  0.39029094     0.36200
C2890       C  0.47205605  0.54175703  0.37044560     0.36100
N2891       N  0.30193325  0.56063660  0.39446069    -0.44200
N2892       N  0.50024410  0.53702862  0.36649451    -0.44200
C2893       C  0.16671569  0.03249293  0.37414218    -0.00600
C2894       C  0.12131174  0.02967875  0.37183392    -0.12500
C2895       C  0.11729019  0.07320955  0.37109243     0.01700
C2896       C  0.15953654  0.12085216  0.37260892    -0.00700
C2897       C  0.20543312  0.12360429  0.37454816    -0.12400
C2898       C  0.20933383  0.08020580  0.37531316     0.01500
H2899       H  0.08832120  0.99316849  0.37090454     0.14500
H2900       H  0.23835630  0.15997676  0.37565074     0.14500
C2901       C  0.25773851  0.08585305  0.37718503     0.36200
C2902       C  0.06878550  0.06763131  0.36927247     0.36100
N2903       N  0.29666393  0.09062706  0.37866725    -0.44200
N2904       N  0.03001062  0.06334051  0.36781069    -0.44200
C2905       C  0.16465481  0.62561356  0.38085547    -0.00600
C2906       C  0.11980860  0.58644821  0.37771676    -0.12500
C2907       C  0.10973756  0.53682759  0.37776337     0.01700
C2908       C  0.14536389  0.52537991  0.38095381    -0.00700
C2909       C  0.18897657  0.56417454  0.38451600    -0.12400
C2910       C  0.19892159  0.61399138  0.38449285     0.01500
H2911       H  0.09224610  0.59464865  0.37516735     0.14500
H2912       H  0.21653988  0.55603389  0.38705860     0.14500
C2913       C  0.24582667  0.65238120  0.38779281     0.36200
C2914       C  0.06205518  0.49871175  0.37462851     0.36100
N2915       N  0.28361188  0.68276309  0.39044015    -0.44200
N2916       N  0.02378004  0.46835254  0.37211751    -0.44200
C2917       C  0.96891638  0.11154156  0.28554757    -0.00600
C2918       C  0.94983061  0.08310794  0.29249002    -0.12500
C2919       C  0.90129994  0.04184997  0.29278173     0.01700
C2920       C  0.87063831  0.02797526  0.28601206    -0.00700
C2921       C  0.89039913  0.05433904  0.27891735    -0.12400
C2922       C  0.93903728  0.09630426  0.27864548     0.01500
H2923       H  0.97284002  0.09355149  0.29777265     0.14500
H2924       H  0.86714255  0.04321992  0.27365972     0.14500
C2925       C  0.95571124  0.12471302  0.27138950     0.36200
C2926       C  0.88429196  0.01366391  0.30006382     0.36100
N2927       N  0.96846807  0.14742207  0.26555907    -0.44200
N2928       N  0.87072438  0.99105263  0.30589355    -0.44200
C2929       C  0.45311100  0.62266021  0.29189974    -0.00600
C2930       C  0.42663033  0.60646807  0.28473862    -0.12500
C2931       C  0.38322402  0.55943818  0.28405054     0.01700
C2932       C  0.36512283  0.52681761  0.29064025    -0.00700
C2933       C  0.39059438  0.54361537  0.29789922    -0.12400
C2934       C  0.43438129  0.59092256  0.29855944     0.01500
H2935       H  0.44031349  0.63070566  0.27958456     0.14500
H2936       H  0.37718107  0.51910313  0.30301960     0.14500
C2937       C  0.46122911  0.60444404  0.30595387     0.36200
C2938       C  0.35738803  0.54671933  0.27654972     0.36100
N2939       N  0.48304226  0.61519023  0.31186164    -0.44200
N2940       N  0.33685330  0.53713531  0.27053012    -0.44200
C2941       C  0.16880672  0.10518748  0.28551920    -0.00600
C2942       C  0.20782673  0.09864087  0.28848815    -0.12500
C2943       C  0.20282602  0.05086813  0.28898310     0.01700
C2944       C  0.15793117  0.00824467  0.28642216    -0.00700
C2945       C  0.11931691  0.01476028  0.28330983    -0.12400
C2946       C  0.12396454  0.06244350  0.28292690     0.01500
H2947       H  0.24243562  0.13102346  0.29047328     0.14500
H2948       H  0.08443256  0.98212930  0.28147141     0.14500
C2949       C  0.08053187  0.06523098  0.28038003     0.36200
C2950       C  0.24498488  0.04720625  0.29196634     0.36100
N2951       N  0.04515831  0.06648411  0.27836983    -0.44200
N2952       N  0.27913096  0.04493623  0.29434613    -0.44200
C2953       C  0.14561388  0.50499095  0.29268081    -0.00600
C2954       C  0.18850022  0.54970234  0.29501991    -0.12500
C2955       C  0.19001966  0.59609413  0.29446469     0.01700
C2956       C  0.14847560  0.59830631  0.29133985    -0.00700
C2957       C  0.10521609  0.55364349  0.28922558    -0.12400
C2958       C  0.10301400  0.50719958  0.29002103     0.01500
H2959       H  0.22154486  0.54869335  0.29702040     0.14500
H2960       H  0.07257209  0.55497930  0.28709551     0.14500
C2961       C  0.05581004  0.46246829  0.28832778     0.36200
C2962       C  0.23521405  0.64103231  0.29687740     0.36100
N2963       N  0.01741754  0.42713131  0.28704795    -0.44200
N2964       N  0.27119932  0.67710488  0.29885740    -0.44200
C2965       C  0.16779742  0.30177631  0.34107678    -0.00600
C2966       C  0.12074101  0.27407105  0.33738428    -0.12500
C2967       C  0.11429062  0.27920434  0.32929967     0.01700
C2968       C  0.15547759  0.31358078  0.32460125    -0.00700
C2969       C  0.20291159  0.34037822  0.32823917    -0.12400
C2970       C  0.20950580  0.33436987  0.33631957     0.01500
H2971       H  0.08807583  0.24903606  0.34087419     0.14500
H2972       H  0.23545478  0.36533306  0.32471508     0.14500
C2973       C  0.25994392  0.36049480  0.33943760     0.36200
C2974       C  0.06436550  0.24908120  0.32611119     0.36100
N2975       N  0.30063465  0.38113365  0.34183492    -0.44200
N2976       N  0.02424151  0.22446372  0.32362532    -0.44200
C2977       C  0.28127383  0.23430839  0.24350591    -0.00600
C2978       C  0.29494661  0.28532173  0.24431917    -0.12500
C2979       C  0.27971954  0.30241601  0.25092444     0.01700
C2980       C  0.24991506  0.26801162  0.25688548    -0.00700
C2981       C  0.23771983  0.21759050  0.25615662    -0.12400
C2982       C  0.25327031  0.20067109  0.24965375     0.01500
H2983       H  0.31643923  0.31172192  0.23966957     0.14500
H2984       H  0.21642591  0.19102698  0.26080607     0.14500
C2985       C  0.24171735  0.14896422  0.24980367     0.36200
C2986       C  0.29369177  0.35486917  0.25124417     0.36100
N2987       N  0.23182790  0.10741606  0.25038732    -0.44200
N2988       N  0.30519922  0.39701251  0.25144237    -0.44200
C2989       C  0.04213025  0.40511764  0.42306513    -0.00600
C2990       C  0.01320034  0.35455476  0.42065456    -0.12500
C2991       C  0.02575284  0.33636067  0.41387133     0.01700
C2992       C  0.06826013  0.36912543  0.40924103    -0.00700
C2993       C  0.09610343  0.41982763  0.41156665    -0.12400
C2994       C  0.08373534  0.43794137  0.41828810     0.01500
H2995       H  0.98116586  0.32861703  0.42418474     0.14500
H2996       H  0.12823903  0.44621243  0.40809552     0.14500
C2997       C  0.11498329  0.49092383  0.41996317     0.36200
C2998       C  0.99463595  0.28370414  0.41198417     0.36100
N2999       N  0.14085526  0.53342080  0.42117177    -0.44200
N3000       N  0.96942912  0.24143121  0.41053081    -0.44200
C3001       C  0.00675961  0.50563199  0.50826221    -0.00600
C3002       C  0.03009256  0.55283872  0.50448116    -0.12500
C3003       C  0.02278421  0.55754162  0.49638658     0.01700
C3004       C  0.99080794  0.51438183  0.49184842    -0.00700
C3005       C  0.96677862  0.46743546  0.49568189    -0.12400
C3006       C  0.97495669  0.46257537  0.50370469     0.01500
H3007       H  0.05386925  0.58646622  0.50787431     0.14500
H3008       H  0.94340275  0.43364811  0.49229655     0.14500
C3009       C  0.95239699  0.41234352  0.50693968     0.36200
C3010       C  0.04840964  0.60727453  0.49294924     0.36100
N3011       N  0.93461550  0.37204123  0.50950029    -0.44200
N3012       N  0.06923535  0.64722774  0.49022965    -0.44200
C3013       C  0.29270355  0.77203911  0.45354809    -0.00600
C3014       C  0.27303861  0.74684641  0.44636138    -0.12500
C3015       C  0.23221443  0.69747571  0.44619015     0.01700
C3016       C  0.20990659  0.67239204  0.45336167    -0.00700
C3017       C  0.23165303  0.69667448  0.46051314    -0.12400
C3018       C  0.27249611  0.74555800  0.46068357     0.01500
H3019       H  0.28877822  0.76628567  0.44083118     0.14500
H3020       H  0.21629824  0.67746496  0.46607519     0.14500
C3021       C  0.29361841  0.76624966  0.46831492     0.36200
C3022       C  0.21342964  0.67504396  0.43855343     0.36100
N3023       N  0.30988973  0.78139416  0.47452096    -0.44200
N3024       N  0.19963388  0.65818496  0.43232940    -0.44200
C3025       C  0.69866324  0.18781535  0.46064201    -0.00600
C3026       C  0.74014495  0.18833207  0.45696912    -0.12500
C3027       C  0.78723773  0.23197488  0.45660291     0.01700
C3028       C  0.79406523  0.27746277  0.45980706    -0.00700
C3029       C  0.75377228  0.27650816  0.46397166    -0.12400
C3030       C  0.70655268  0.23225838  0.46447259     0.01500
H3031       H  0.73579569  0.15426346  0.45427466     0.14500
H3032       H  0.75863367  0.31085411  0.46663338     0.14500
C3033       C  0.66679670  0.23432439  0.46871087     0.36200
C3034       C  0.82822915  0.22806005  0.45317138     0.36100
N3035       N  0.63506951  0.23616995  0.47212938    -0.44200
N3036       N  0.86067830  0.22379468  0.45052361    -0.44200
C3037       C  0.29932773  0.90758252  0.40949432    -0.00600
C3038       C  0.32413631  0.88137132  0.41175267    -0.12500
C3039       C  0.35578631  0.89534508  0.41834532     0.01700
C3040       C  0.36362821  0.93687563  0.42306835    -0.00700
C3041       C  0.33917215  0.96353237  0.42081752    -0.12400
C3042       C  0.30733775  0.94939826  0.41417221     0.01500
H3043       H  0.31914045  0.84944053  0.40830675     0.14500
H3044       H  0.34402737  0.99512811  0.42436309     0.14500
C3045       C  0.28284353  0.97814041  0.41248607     0.36200
C3046       C  0.37989804  0.86607616  0.41993866     0.36100
N3047       N  0.26343125  0.00149220  0.41120224    -0.44200
N3048       N  0.39855451  0.84189560  0.42110754    -0.44200
C3049       C  0.51051832  0.00298370  0.50814545    -0.00600
C3050       C  0.48127913  0.95968816  0.50364355    -0.12500
C3051       C  0.48700006  0.95957479  0.49542064     0.01700
C3052       C  0.52402164  0.00327582  0.49146476    -0.00700
C3053       C  0.55337443  0.04668079  0.49595913    -0.12400
C3054       C  0.54708343  0.04699078  0.50418915     0.01500
H3055       H  0.45250852  0.92600895  0.50654236     0.14500
H3056       H  0.58142031  0.08060896  0.49302290     0.14500
C3057       C  0.57996227  0.09275804  0.50838629     0.36200
C3058       C  0.45112242  0.91507199  0.49122908     0.36100
N3059       N  0.60675061  0.12980312  0.51163580    -0.44200
N3060       N  0.42113217  0.87895068  0.48810720    -0.44200
C3061       C  0.21005104  0.72659945  0.54191096    -0.00600
C3062       C  0.25034374  0.72464726  0.53824505    -0.12500
C3063       C  0.29846142  0.76746978  0.53774063     0.01700
C3064       C  0.30647819  0.81430491  0.54056006    -0.00700
C3065       C  0.26560701  0.81634161  0.54397599    -0.12400
C3066       C  0.21832495  0.77328760  0.54480079     0.01500
H3067       H  0.24486685  0.68887300  0.53611330     0.14500
H3068       H  0.27082575  0.85181339  0.54621290     0.14500
C3069       C  0.17909979  0.77861714  0.54859136     0.36200
C3070       C  0.33951767  0.76096169  0.53504422     0.36100
N3071       N  0.14819100  0.78352168  0.55168886    -0.44200
N3072       N  0.37230703  0.75513982  0.53302382    -0.44200
C3073       C  0.73557703  0.20821822  0.54819087    -0.00600
C3074       C  0.73513425  0.24538216  0.55305597    -0.12500
C3075       C  0.77436670  0.29540304  0.55291580     0.01700
C3076       C  0.81583002  0.30954975  0.54783179    -0.00700
C3077       C  0.81755490  0.27196783  0.54327580    -0.12400
C3078       C  0.77847957  0.22197768  0.54342550     0.01500
H3079       H  0.70305458  0.23596289  0.55682689     0.14500
H3080       H  0.84961477  0.28165497  0.53947784     0.14500
C3081       C  0.78406443  0.18625057  0.53857602     0.36200
C3082       C  0.76928053  0.33137569  0.55777325     0.36100
N3083       N  0.78890904  0.15785896  0.53469102    -0.44200
N3084       N  0.76463632  0.35979724  0.56168126    -0.44200
C3085       C  0.71144198  0.49938440  0.45825554    -0.00600
C3086       C  0.75392395  0.53919646  0.45471848    -0.12500
C3087       C  0.80136564  0.54346017  0.45539354     0.01700
C3088       C  0.80721774  0.50634056  0.45955123    -0.00700
C3089       C  0.76490703  0.46743134  0.46332176    -0.12400
C3090       C  0.71748414  0.46352759  0.46270515     0.01500
H3091       H  0.75017478  0.56763153  0.45145659     0.14500
H3092       H  0.76824973  0.43843008  0.46647572     0.14500
C3093       C  0.67550845  0.42035255  0.46631060     0.36200
C3094       C  0.84308137  0.58702318  0.45180175     0.36100
N3095       N  0.64256325  0.38533204  0.46924402    -0.44200
N3096       N  0.87603417  0.62215329  0.44889247    -0.44200
C3097       C  0.20634164  0.48268719  0.45323080    -0.00600
C3098       C  0.22700929  0.48539238  0.46072433    -0.12500
C3099       C  0.27677223  0.49686349  0.46161717     0.01700
C3100       C  0.30706347  0.50455078  0.45486963    -0.00700
C3101       C  0.28691890  0.50341132  0.44736186    -0.12400
C3102       C  0.23737566  0.49336827  0.44649472     0.01500
H3103       H  0.20447064  0.47979407  0.46597352     0.14500
H3104       H  0.30957481  0.50948606  0.44211442     0.14500
C3105       C  0.21970787  0.49424655  0.43862834     0.36200
C3106       C  0.29550207  0.50159973  0.46957609     0.36100
N3107       N  0.20614259  0.49579340  0.43231361    -0.44200
N3108       N  0.30978328  0.50522953  0.47599665    -0.44200
C3109       C  0.48849919  0.28642061  0.46028978    -0.00600
C3110       C  0.53365844  0.28683694  0.45880814    -0.12500
C3111       C  0.53396230  0.24189888  0.45752364     0.01700
C3112       C  0.48860261  0.19561447  0.45788146    -0.00700
C3113       C  0.44357310  0.19500066  0.45950796    -0.12400
C3114       C  0.44311107  0.24000282  0.46065239     0.01500
H3115       H  0.56825683  0.32245447  0.45816341     0.14500
H3116       H  0.40876947  0.15932925  0.45986321     0.14500
C3117       C  0.39569666  0.23768727  0.46216694     0.36200
C3118       C  0.58042601  0.24430784  0.45522272     0.36100
N3119       N  0.35767516  0.23577826  0.46338215    -0.44200
N3120       N  0.61738451  0.24620214  0.45321763    -0.44200
C3121       C  0.51210478  0.70968486  0.45207830    -0.00600
C3122       C  0.46947595  0.70732247  0.44853284    -0.12500
C3123       C  0.46123553  0.74836659  0.44876679     0.01700
C3124       C  0.49649018  0.79344813  0.45251343    -0.00700
C3125       C  0.54018262  0.79666688  0.45570120    -0.12400
C3126       C  0.54831996  0.75570823  0.45554889     0.01500
H3127       H  0.44112663  0.67250660  0.44586248     0.14500
H3128       H  0.56819590  0.83147366  0.45842715     0.14500
C3129       C  0.59418240  0.76274125  0.45909470     0.36200
C3130       C  0.41475533  0.74182408  0.44557588     0.36100
N3131       N  0.63105903  0.76930256  0.46200747    -0.44200
N3132       N  0.37737658  0.73643465  0.44305150    -0.44200
C3133       C  0.57154503  0.61698508  0.42343995    -0.00600
C3134       C  0.60771272  0.61540569  0.41853588    -0.12500
C3135       C  0.62363130  0.64320860  0.41149453     0.01700
C3136       C  0.60398690  0.67454880  0.40925656    -0.00700
C3137       C  0.56781247  0.67608106  0.41414855    -0.12400
C3138       C  0.55158566  0.64811962  0.42113847     0.01500
H3139       H  0.62304385  0.59144639  0.42011489     0.14500
H3140       H  0.55232744  0.69990275  0.41255593     0.14500
C3141       C  0.51538181  0.65376280  0.42585209     0.36200
C3142       C  0.65770304  0.63584914  0.40654308     0.36100
N3143       N  0.48639557  0.65851497  0.42958692    -0.44200
N3144       N  0.68445414  0.62819751  0.40271880    -0.44200
C3145       C  0.28776035  0.49965283  0.54199729    -0.00600
C3146       C  0.27741067  0.52200799  0.54840891    -0.12500
C3147       C  0.23707630  0.53102584  0.54821297     0.01700
C3148       C  0.20611035  0.51821716  0.54143362    -0.00700
C3149       C  0.21682436  0.49667929  0.53493919    -0.12400
C3150       C  0.25684628  0.48670426  0.53520173     0.01500
H3151       H  0.30105397  0.53261593  0.55362129     0.14500
H3152       H  0.19218935  0.48498583  0.52984245     0.14500
C3153       C  0.26284341  0.45973372  0.52868287     0.36200
C3154       C  0.22781844  0.55276903  0.55514696     0.36100
N3155       N  0.26702784  0.43756568  0.52348040    -0.44200
N3156       N  0.22004720  0.56956514  0.56073931    -0.44200
C3157       C  0.69173597  0.49838051  0.54768634    -0.00600
C3158       C  0.73106661  0.54350115  0.54463254    -0.12500
C3159       C  0.78071218  0.55355633  0.54468314     0.01700
C3160       C  0.79216759  0.51752744  0.54777758    -0.00700
C3161       C  0.75287421  0.47303866  0.55110959    -0.12400
C3162       C  0.70312450  0.46328765  0.55110662     0.01500
H3163       H  0.72295258  0.57131303  0.54214364     0.14500
H3164       H  0.76059772  0.44478565  0.55350884     0.14500
C3165       C  0.66437903  0.41594832  0.55427179     0.36200
C3166       C  0.81857720  0.60153589  0.54157142     0.36100
N3167       N  0.63325411  0.37808007  0.55681445    -0.44200
N3168       N  0.84829521  0.64022714  0.53906924    -0.44200
C3169       C  0.49013058  0.69305398  0.54179330    -0.00600
C3170       C  0.48506363  0.71146340  0.54913822    -0.12500
C3171       C  0.48803264  0.75822392  0.54984809     0.01700
C3172       C  0.49792955  0.78906391  0.54311091    -0.00700
C3173       C  0.50102075  0.76976771  0.53567905    -0.12400
C3174       C  0.49649899  0.72193365  0.53496433     0.01500
H3175       H  0.47824902  0.68878538  0.55441219     0.14500
H3176       H  0.50753457  0.79228338  0.53040429     0.14500
C3177       C  0.49981169  0.70398856  0.52722665     0.36200
C3178       C  0.47783465  0.77161743  0.55753191     0.36100
N3179       N  0.50199015  0.68907872  0.52104079    -0.44200
N3180       N  0.46867443  0.78079842  0.56373591    -0.44200
C3181       C  0.49848092  0.28518532  0.54693873    -0.00600
C3182       C  0.49539346  0.26030004  0.55406495    -0.12500
C3183       C  0.50635670  0.22097754  0.55432468     0.01700
C3184       C  0.52158163  0.20680158  0.54734266    -0.00700
C3185       C  0.52704012  0.23369562  0.54034707    -0.12400
C3186       C  0.51549241  0.27224345  0.54007767     0.01500
H3187       H  0.48323949  0.27085178  0.55939668     0.14500
H3188       H  0.53983359  0.22405683  0.53499058     0.14500
C3189       C  0.52291594  0.29883980  0.53271246     0.36200
C3190       C  0.49899379  0.19466871  0.56171517     0.36100
N3191       N  0.52898038  0.31996765  0.52678993    -0.44200
N3192       N  0.49258227  0.17428603  0.56772121    -0.44200
C3193       C  0.49681092  0.49545137  0.50832907    -0.00600
C3194       C  0.51274633  0.46231412  0.50549617    -0.12500
C3195       C  0.50709995  0.44756881  0.49751120     0.01700
C3196       C  0.48435084  0.46543971  0.49215432    -0.00700
C3197       C  0.46762339  0.49770471  0.49506056    -0.12400
C3198       C  0.47424491  0.51329761  0.50295771     0.01500
H3199       H  0.52932099  0.44735028  0.50956261     0.14500
H3200       H  0.45134999  0.51313745  0.49104955     0.14500
C3201       C  0.46155052  0.55114104  0.50511387     0.36200
C3202       C  0.52334621  0.41278030  0.49509143     0.36100
N3203       N  0.45193606  0.58229452  0.50655274    -0.44200
N3204       N  0.53622632  0.38454733  0.49327666    -0.44200
C3205       C  0.07411150  0.68424751  0.90938137    -0.00600
C3206       C  0.03322413  0.68026406  0.91373787    -0.12500
C3207       C  0.01647391  0.65146155  0.92068131     0.01700
C3208       C  0.04154868  0.62645531  0.92359038    -0.00700
C3209       C  0.08154199  0.62931208  0.91910834    -0.12400
C3210       C  0.09740799  0.65690896  0.91206145     0.01500
H3211       H  0.01420273  0.70008007  0.91175391     0.14500
H3212       H  0.10038452  0.60923510  0.92105437     0.14500
C3213       C  0.13649899  0.65456404  0.90762693     0.36200
C3214       C  0.97368900  0.64901963  0.92465543     0.36100
N3215       N  0.16757339  0.65237521  0.90406322    -0.44200
N3216       N  0.93902321  0.64694741  0.92773405    -0.44200
C3217       C  0.16292896  0.83021893  0.84192824    -0.00600
C3218       C  0.18516549  0.80295555  0.83890714    -0.12500
C3219       C  0.18067915  0.78886690  0.83092139     0.01700
C3220       C  0.15323573  0.80184476  0.82567305    -0.00700
C3221       C  0.13070452  0.82880680  0.82872189    -0.12400
C3222       C  0.13565344  0.84338666  0.83667496     0.01500
H3223       H  0.20553340  0.79154487  0.84284325     0.14500
H3224       H  0.11052545  0.84051525  0.82481174     0.14500
C3225       C  0.11451017  0.87411500  0.83910289     0.36200
C3226       C  0.20343304  0.75980314  0.82840306     0.36100
N3227       N  0.09767932  0.89907658  0.84091769    -0.44200
N3228       N  0.22175425  0.73632539  0.82651174    -0.44200
C3229       C  0.38318351  0.82984625  0.79223402    -0.00600
C3230       C  0.39781849  0.81184406  0.78572151    -0.12500
C3231       C  0.43973847  0.80539381  0.78609606     0.01700
C3232       C  0.46913550  0.81823572  0.79303569    -0.00700
C3233       C  0.45456214  0.83580905  0.79960951    -0.12400
C3234       C  0.41204792  0.84187122  0.79926021     0.01500
H3235       H  0.37567454  0.80158944  0.78034745     0.14500
H3236       H  0.47751380  0.84673895  0.80489695     0.14500
C3237       C  0.40085080  0.86333424  0.80601894     0.36200
C3238       C  0.45096076  0.78387232  0.77932943     0.36100
N3239       N  0.39236063  0.88089251  0.81144447    -0.44200
N3240       N  0.45978770  0.76630763  0.77394058    -0.44200
C3241       C  0.88222346  0.82209029  0.78695332    -0.00600
C3242       C  0.91158737  0.84542717  0.79363634    -0.12500
C3243       C  0.96183630  0.85732255  0.79398402     0.01700
C3244       C  0.98339056  0.84508609  0.78758546    -0.00700
C3245       C  0.95437280  0.82303744  0.78079267    -0.12400
C3246       C  0.90397686  0.81116805  0.78045329     0.01500
H3247       H  0.89531622  0.85501495  0.79856985     0.14500
H3248       H  0.97032881  0.81275791  0.77590192     0.14500
C3249       C  0.87430724  0.78426868  0.77366288     0.36200
C3250       C  0.99077670  0.88372087  0.80086039     0.36100
N3251       N  0.85037777  0.76201966  0.76827329    -0.44200
N3252       N  0.01345492  0.90544524  0.80637521    -0.44200
C3253       C  0.60530297  0.90867798  0.91036530    -0.00600
C3254       C  0.64236958  0.93862871  0.91590346    -0.12500
C3255       C  0.62975471  0.95302497  0.92306055     0.01700
C3256       C  0.57890814  0.93746146  0.92481287    -0.00700
C3257       C  0.54204803  0.90760617  0.91926956    -0.12400
C3258       C  0.55456430  0.89344910  0.91213056     0.01500
H3259       H  0.68137466  0.95030491  0.91468930     0.14500
H3260       H  0.50299902  0.89599292  0.92043991     0.14500
C3261       C  0.51427251  0.86498192  0.90663491     0.36200
C3262       C  0.66973957  0.98235933  0.92855516     0.36100
N3263       N  0.48139686  0.84228534  0.90232024    -0.44200
N3264       N  0.70218755  0.00586012  0.93290006    -0.44200
C3265       C  0.45187651  0.83928170  0.88217825    -0.00600
C3266       C  0.44613916  0.87946989  0.87952158    -0.12500
C3267       C  0.39885727  0.87542511  0.87917579     0.01700
C3268       C  0.35590435  0.83043614  0.88162593    -0.00700
C3269       C  0.36194922  0.79154959  0.88480827    -0.12400
C3270       C  0.40921946  0.79530034  0.88506621     0.01500
H3271       H  0.47868223  0.91396301  0.87752246     0.14500
H3272       H  0.32923365  0.75700627  0.88674978     0.14500
C3273       C  0.41176033  0.75218656  0.88793014     0.36200
C3274       C  0.39602568  0.91814589  0.87621978     0.36100
N3275       N  0.41332122  0.71747269  0.89025586    -0.44200
N3276       N  0.39482953  0.95282353  0.87378883    -0.44200
C3277       C  0.95087518  0.83030099  0.87653891    -0.00600
C3278       C  0.92790550  0.82705055  0.86916189    -0.12500
C3279       C  0.88523608  0.83263011  0.86854268     0.01700
C3280       C  0.86433505  0.84094989  0.87540017    -0.00700
C3281       C  0.88906873  0.84735215  0.88265563    -0.12400
C3282       C  0.93200980  0.84276809  0.88327302     0.01500
H3283       H  0.94256983  0.81900256  0.86386846     0.14500
H3284       H  0.87439807  0.85561782  0.88793631     0.14500
C3285       C  0.95654023  0.85274289  0.89086708     0.36200
C3286       C  0.86232161  0.82748489  0.86090135     0.36100
N3287       N  0.97617201  0.86113290  0.89695695    -0.44200
N3288       N  0.84351497  0.82369739  0.85482454    -0.44200
C3289       C  0.66417915  0.82639180  0.84210973    -0.00600
C3290       C  0.68890587  0.87405637  0.83847732    -0.12500
C3291       C  0.68377718  0.87996942  0.83036089     0.01700
C3292       C  0.65281089  0.83758047  0.82562913    -0.00700
C3293       C  0.62720154  0.79014180  0.82929251    -0.12400
C3294       C  0.63267011  0.78409199  0.83737277     0.01500
H3295       H  0.71221188  0.90718663  0.84200243     0.14500
H3296       H  0.60425831  0.75694683  0.82576388     0.14500
C3297       C  0.60664849  0.73352481  0.84050450     0.36200
C3298       C  0.71051127  0.93019621  0.82711967     0.36100
N3299       N  0.58575584  0.69294949  0.84298873    -0.44200
N3300       N  0.73226182  0.97069427  0.82461964    -0.44200
C3301       C  0.17928684  0.04277186  0.78656053    -0.00600
C3302       C  0.13549327  0.03835919  0.78311519    -0.12500
C3303       C  0.12516774  0.07791308  0.78348215     0.01700
C3304       C  0.15906352  0.12285794  0.78735472    -0.00700
C3305       C  0.20331573  0.12781368  0.79058617    -0.12400
C3306       C  0.21391037  0.08870282  0.79020563     0.01500
H3307       H  0.10828992  0.00334976  0.78034829     0.14500
H3308       H  0.23026821  0.16288439  0.79337930     0.14500
C3309       C  0.26110486  0.09786501  0.79351905     0.36200
C3310       C  0.07849312  0.07050008  0.78022609     0.36100
N3311       N  0.29911387  0.10615221  0.79620944    -0.44200
N3312       N  0.04110043  0.06482355  0.77765868    -0.44200
C3313       C  0.16733879  0.53376469  0.79085337    -0.00600
C3314       C  0.16691244  0.55356473  0.79840751    -0.12500
C3315       C  0.16910802  0.60033967  0.79924621     0.01700
C3316       C  0.17255338  0.62841539  0.79247646    -0.00700
C3317       C  0.17455554  0.60948147  0.78501042    -0.12400
C3318       C  0.17197206  0.56308743  0.78412330     0.01500
H3319       H  0.16351655  0.53196243  0.80367323     0.14500
H3320       H  0.17809191  0.63127184  0.77974786     0.14500
C3321       C  0.17554930  0.54808026  0.77617225     0.36200
C3322       C  0.16442493  0.61739949  0.80698948     0.36100
N3323       N  0.17854702  0.53756084  0.76970774    -0.44200
N3324       N  0.16031532  0.63198856  0.81309668    -0.44200
C3325       C  0.36854157  0.51977825  0.79352877    -0.00600
C3326       C  0.41183678  0.51824307  0.79117952    -0.12500
C3327       C  0.45823496  0.56221573  0.79027622     0.01700
C3328       C  0.46274616  0.60926423  0.79197529    -0.00700
C3329       C  0.42008363  0.61102996  0.79458753    -0.12400
C3330       C  0.37305245  0.56704131  0.79523279     0.01500
H3331       H  0.40918586  0.48240128  0.78981655     0.14500
H3332       H  0.42309285  0.64718011  0.79581943     0.14500
C3333       C  0.32976509  0.57215592  0.79701247     0.36200
C3334       C  0.50071298  0.55791471  0.78764888     0.36100
N3335       N  0.29522791  0.57666341  0.79835701    -0.44200
N3336       N  0.53479925  0.55464405  0.78551277    -0.44200
C3337       C  0.95921589  0.10784825  0.78667301    -0.00600
C3338       C  0.94363519  0.08494818  0.79410649    -0.12500
C3339       C  0.90380782  0.03563074  0.79488138     0.01700
C3340       C  0.87718254  0.00832466  0.78811316    -0.00700
C3341       C  0.89408940  0.03039856  0.78063798    -0.12400
C3342       C  0.93509700  0.07931268  0.77985772     0.01500
H3343       H  0.96330662  0.10552108  0.79936832     0.14500
H3344       H  0.87447391  0.00988309  0.77537136     0.14500
C3345       C  0.95054265  0.09924022  0.77199652     0.36200
C3346       C  0.89283535  0.01374627  0.80268906     0.36100
N3347       N  0.96269182  0.11421514  0.76563512    -0.44200
N3348       N  0.88520533  0.99691734  0.80899213    -0.44200
C3349       C  0.30259677  0.37407080  0.90935132    -0.00600
C3350       C  0.34203609  0.42404857  0.91011799    -0.12500
C3351       C  0.37188968  0.44063975  0.91693317     0.01700
C3352       C  0.36175435  0.40753181  0.92336476    -0.00700
C3353       C  0.32339346  0.35713923  0.92253207    -0.12400
C3354       C  0.29421713  0.34012182  0.91561196     0.01500
H3355       H  0.35027259  0.45030932  0.90528634     0.14500
H3356       H  0.31551981  0.33106016  0.92737474     0.14500
C3357       C  0.25503292  0.28809446  0.91524011     0.36200
C3358       C  0.41483960  0.49078746  0.91689282     0.36100
N3359       N  0.22385368  0.24627631  0.91495825    -0.44200
N3360       N  0.44971287  0.53067955  0.91666397    -0.44200
C3361       C  0.19301470  0.33953209  0.82535732    -0.00600
C3362       C  0.17600347  0.36989921  0.82891215    -0.12500
C3363       C  0.16162480  0.36431051  0.83689528     0.01700
C3364       C  0.16447549  0.32776782  0.84167017    -0.00700
C3365       C  0.18270724  0.29827433  0.83817744    -0.12400
C3366       C  0.19688336  0.30375697  0.83017454     0.01500
H3367       H  0.17183089  0.39703528  0.82536582     0.14500
H3368       H  0.18659090  0.27100124  0.84174126     0.14500
C3369       C  0.21543705  0.27204890  0.82713444     0.36200
C3370       C  0.14244274  0.39569559  0.83987144     0.36100
N3371       N  0.23020702  0.24645838  0.82473299    -0.44200
N3372       N  0.12716932  0.42106115  0.84218747    -0.44200
C3373       C  0.95894928  0.13533412  0.87397370    -0.00600
C3374       C  0.91732305  0.13738564  0.87706329    -0.12500
C3375       C  0.87021867  0.09399221  0.87790367     0.01700
C3376       C  0.86352636  0.04691903  0.87553346    -0.00700
C3377       C  0.90437695  0.04502539  0.87210349    -0.12400
C3378       C  0.95181032  0.08837773  0.87138992     0.01500
H3379       H  0.92185256  0.17314115  0.87901321     0.14500
H3380       H  0.89975036  0.00906026  0.87024940     0.14500
C3381       C  0.99297771  0.08266546  0.86852201     0.36200
C3382       C  0.82958268  0.09940293  0.88112343     0.36100
N3383       N  0.02582008  0.07765021  0.86626614    -0.44200
N3384       N  0.79774774  0.10492593  0.88371213    -0.44200
C3385       C  0.38070256  0.53486638  0.88027489    -0.00600
C3386       C  0.40584585  0.55644923  0.88735917    -0.12500
C3387       C  0.44627264  0.60585930  0.88753685     0.01700
C3388       C  0.46149059  0.63477201  0.88052299    -0.00700
C3389       C  0.43481430  0.61348077  0.87350515    -0.12400
C3390       C  0.39476245  0.56409679  0.87332575     0.01500
H3391       H  0.39451218  0.53420863  0.89273750     0.14500
H3392       H  0.44539391  0.63555474  0.86811135     0.14500
C3393       C  0.36736559  0.54505259  0.86602150     0.36200
C3394       C  0.47293596  0.62434303  0.89488678     0.36100
N3395       N  0.34521666  0.52992219  0.86018915    -0.44200
N3396       N  0.49395508  0.63807695  0.90083561    -0.44200
C3397       C  0.14352304  0.01551236  0.87485727    -0.00600
C3398       C  0.16396889  0.04807253  0.86840571    -0.12500
C3399       C  0.16952897  0.09631902  0.86860787     0.01700
C3400       C  0.15505906  0.11273160  0.87544001    -0.00700
C3401       C  0.13272585  0.07916967  0.88175352    -0.12400
C3402       C  0.12639153  0.03078191  0.88148174     0.01500
H3403       H  0.17748111  0.03656117  0.86333777     0.14500
H3404       H  0.11981090  0.09066116  0.88689809     0.14500
C3405       C  0.10156443  0.99704807  0.88802672     0.36200
C3406       C  0.19220791  0.12860646  0.86185525     0.36100
N3407       N  0.08149661  0.96971829  0.89322268    -0.44200
N3408       N  0.21024643  0.15378094  0.85636455    -0.44200
C3409       C  0.16735599  0.52350457  0.88182589    -0.00600
C3410       C  0.11885905  0.51621093  0.88064777    -0.12500
C3411       C  0.10965815  0.55666498  0.88091211     0.01700
C3412       C  0.14970203  0.60593152  0.88232491    -0.00700
C3413       C  0.19769821  0.61268003  0.88390374    -0.12400
C3414       C  0.20684941  0.57220421  0.88363371     0.01500
H3415       H  0.08806063  0.47869971  0.87940845     0.14500
H3416       H  0.22892914  0.65021512  0.88496768     0.14500
C3417       C  0.25782397  0.58251674  0.88463132     0.36200
C3418       C  0.05873961  0.54626978  0.87978188     0.36100
N3419       N  0.29885404  0.59123717  0.88538800    -0.44200
N3420       N  0.01779457  0.53752177  0.87888882    -0.44200
C3421       C  0.25276962  0.95400021  0.75688068    -0.00600
C3422       C  0.21740046  0.96264535  0.75297163    -0.12500
C3423       C  0.22922986  0.99121503  0.74604860     0.01700
C3424       C  0.27829594  0.01288446  0.74273904    -0.00700
C3425       C  0.31342952  0.00318094  0.74652109    -0.12400
C3426       C  0.30132334  0.97426734  0.75347944     0.01500
H3427       H  0.17965714  0.94690580  0.75533114     0.14500
H3428       H  0.35093184  0.01860547  0.74408238     0.14500
C3429       C  0.34036179  0.96764888  0.75702505     0.36200
C3430       C  0.18920308  0.99654902  0.74253551     0.36100
N3431       N  0.37224654  0.96286078  0.75976444    -0.44200
N3432       N  0.15702273  0.00058220  0.73972627    -0.44200
C3433       C  0.33327747  0.16372023  0.65837790    -0.00600
C3434       C  0.29006486  0.13620267  0.66297599    -0.12500
C3435       C  0.29121332  0.14211759  0.67118703     0.01700
C3436       C  0.33610368  0.17788021  0.67499520    -0.00700
C3437       C  0.37957484  0.20494330  0.67041160    -0.12400
C3438       C  0.37869741  0.19805502  0.66220454     0.01500
H3439       H  0.25540701  0.10873135  0.66015738     0.14500
H3440       H  0.41451653  0.23146990  0.67326203     0.14500
C3441       C  0.42493539  0.22767825  0.65790789     0.36200
C3442       C  0.24662063  0.10773764  0.67552109     0.36100
N3443       N  0.46242496  0.25164517  0.65457583    -0.44200
N3444       N  0.21055957  0.07909942  0.67881819    -0.44200
C3445       C  0.38442394  0.30497310  0.59031312    -0.00600
C3446       C  0.34698934  0.29705518  0.58477453    -0.12500
C3447       C  0.35904671  0.32439299  0.57765126     0.01700
C3448       C  0.40945406  0.36094574  0.57597767    -0.00700
C3449       C  0.44647938  0.36956088  0.58157977    -0.12400
C3450       C  0.43460286  0.34249864  0.58866201     0.01500
H3451       H  0.30833110  0.26853148  0.58591544     0.14500
H3452       H  0.48516313  0.39818926  0.58045758     0.14500
C3453       C  0.47488261  0.35604378  0.59422285     0.36200
C3454       C  0.31943687  0.31209697  0.57199591     0.36100
N3455       N  0.50776068  0.36779781  0.59859695    -0.44200
N3456       N  0.28765974  0.30193027  0.56745331    -0.44200
C3457       C  0.52654965  0.34990271  0.70723303    -0.00600
C3458       C  0.54814306  0.36897075  0.71464152    -0.12500
C3459       C  0.59146544  0.41556365  0.71546805     0.01700
C3460       C  0.61505351  0.44557342  0.70874143    -0.00700
C3461       C  0.59459220  0.42578847  0.70122427    -0.12400
C3462       C  0.55104073  0.37808004  0.70041853     0.01500
H3463       H  0.53111660  0.34684325  0.71992485     0.14500
H3464       H  0.61270792  0.44746876  0.69596052     0.14500
C3465       C  0.53252622  0.35893298  0.69260798     0.36200
C3466       C  0.61138287  0.42979624  0.72335757     0.36100
N3467       N  0.51789276  0.34305900  0.68636025    -0.44200
N3468       N  0.62654683  0.44013294  0.72973901    -0.44200
C3469       C  0.11579282  0.94133716  0.71243230    -0.00600
C3470       C  0.09304852  0.91875301  0.71961729    -0.12500
C3471       C  0.04418714  0.87771181  0.71986776     0.01700
C3472       C  0.01670992  0.85858596  0.71278230    -0.00700
C3473       C  0.03896425  0.88281551  0.70561208    -0.12400
C3474       C  0.08785549  0.92388998  0.70538235     0.01500
H3475       H  0.11419160  0.93228286  0.72506706     0.14500
H3476       H  0.01818247  0.86941085  0.70013167     0.14500
C3477       C  0.10771255  0.94854908  0.69789187     0.36200
C3478       C  0.02522649  0.85489076  0.72747172     0.36100
N3479       N  0.12370631  0.96869020  0.69192342    -0.44200
N3480       N  0.01179874  0.83791930  0.73370128    -0.44200
C3481       C  0.71941398  0.73968793  0.75698644    -0.00600
C3482       C  0.69469736  0.68785724  0.75521304    -0.12500
C3483       C  0.70770195  0.66926111  0.74853318     0.01700
C3484       C  0.74655733  0.70288122  0.74340257    -0.00700
C3485       C  0.77003900  0.75467428  0.74509105    -0.12400
C3486       C  0.75710196  0.77314685  0.75171058     0.01500
H3487       H  0.66564961  0.66142966  0.75915686     0.14500
H3488       H  0.79886341  0.78159931  0.74116614     0.14500
C3489       C  0.78282881  0.82704797  0.75270771     0.36200
C3490       C  0.68087085  0.61555079  0.74723583     0.36100
N3491       N  0.80420376  0.87039910  0.75332245    -0.44200
N3492       N  0.65903273  0.57248094  0.74622351    -0.44200
C3493       C  0.04554288  0.88265189  0.62493814    -0.00600
C3494       C  0.05967746  0.91420393  0.61828455    -0.12500
C3495       C  0.10242618  0.96204352  0.61840778     0.01700
C3496       C  0.13264882  0.97910330  0.62526131    -0.00700
C3497       C  0.11767748  0.94868297  0.63202085    -0.12400
C3498       C  0.07484040  0.90062094  0.63189993     0.01500
H3499       H  0.03708572  0.90155860  0.61296127     0.14500
H3500       H  0.14090798  0.96138965  0.63727601     0.14500
C3501       C  0.06417485  0.86932413  0.63881127     0.36200
C3502       C  0.11405153  0.99341307  0.61145965     0.36100
N3503       N  0.05588649  0.84407553  0.64432796    -0.44200
N3504       N  0.12353670  0.01883786  0.60593537    -0.44200
C3505       C  0.64282572  0.47758241  0.61907694    -0.00600
C3506       C  0.63441246  0.43561879  0.61460356    -0.12500
C3507       C  0.58647004  0.39293573  0.61411520     0.01700
C3508       C  0.54543339  0.39144670  0.61829245    -0.00700
C3509       C  0.55354453  0.43514382  0.62226801    -0.12400
C3510       C  0.60125022  0.47791152  0.62262083     0.01500
H3511       H  0.66579126  0.43539459  0.61169376     0.14500
H3512       H  0.52253601  0.43593156  0.62521120     0.14500
C3513       C  0.60615874  0.52209846  0.62651164     0.36200
C3514       C  0.58199754  0.35118290  0.60951009     0.36100
N3515       N  0.61049519  0.55782871  0.62956685    -0.44200
N3516       N  0.57953656  0.31828760  0.60579978    -0.44200
C3517       C  0.83832578  0.66577228  0.65905666    -0.00600
C3518       C  0.79378468  0.63731024  0.66337087    -0.12500
C3519       C  0.79465137  0.62597195  0.67135693     0.01700
C3520       C  0.84105099  0.64189383  0.67522013    -0.00700
C3521       C  0.88569791  0.67015637  0.67089948    -0.12400
C3522       C  0.88480941  0.68235708  0.66292654     0.01500
H3523       H  0.75781132  0.62473034  0.66052473     0.14500
H3524       H  0.92159921  0.68354637  0.67381101     0.14500
C3525       C  0.93223695  0.71085766  0.65887384     0.36200
C3526       C  0.74733319  0.60207613  0.67553742     0.36100
N3527       N  0.97046958  0.73385246  0.65568984    -0.44200
N3528       N  0.70916708  0.58377563  0.67881551    -0.44200
C3529       C  0.92343446  0.62610795  0.59046728    -0.00600
C3530       C  0.88577972  0.59154594  0.58539739    -0.12500
C3531       C  0.89748409  0.57690905  0.57821149     0.01700
C3532       C  0.94826258  0.59542253  0.57599354    -0.00700
C3533       C  0.98602245  0.63081560  0.58098923    -0.12400
C3534       C  0.97419491  0.64642768  0.58810933     0.01500
H3535       H  0.84660361  0.57653049  0.58696975     0.14500
H3536       H  0.02516466  0.64591510  0.57939466     0.14500
C3537       C  0.01518915  0.68194115  0.59296827     0.36200
C3538       C  0.85626423  0.54525296  0.57304962     0.36100
N3539       N  0.04839653  0.71052128  0.59679856    -0.44200
N3540       N  0.82305835  0.52046675  0.56890355    -0.44200
C3541       C  0.82411667  0.95281739  0.71431671    -0.00600
C3542       C  0.86146627  0.94702761  0.71811023    -0.12500
C3543       C  0.85823479  0.89999861  0.71861256     0.01700
C3544       C  0.81653514  0.85718130  0.71526505    -0.00700
C3545       C  0.77802485  0.86279237  0.71179342    -0.12400
C3546       C  0.78133773  0.90981540  0.71129413     0.01500
H3547       H  0.89435101  0.97977115  0.72046879     0.14500
H3548       H  0.74520597  0.83031622  0.70936405     0.14500
C3549       C  0.73983432  0.91238248  0.70775088     0.36200
C3550       C  0.89969795  0.89805514  0.72227461     0.36100
N3551       N  0.70660482  0.91440062  0.70490985    -0.44200
N3552       N  0.93319840  0.89725595  0.72525558    -0.44200
C3553       C  0.84790774  0.36960032  0.70811194    -0.00600
C3554       C  0.80590647  0.36864604  0.70457494    -0.12500
C3555       C  0.80235075  0.41237471  0.70391149     0.01700
C3556       C  0.84151181  0.45843629  0.70683217    -0.00700
C3557       C  0.88477716  0.45974488  0.70991342    -0.12400
C3558       C  0.88834229  0.41615532  0.71055221     0.01500
H3559       H  0.77475983  0.33317079  0.70256743     0.14500
H3560       H  0.91588702  0.49506557  0.71198013     0.14500
C3561       C  0.93449012  0.42081924  0.71353887     0.36200
C3562       C  0.75705602  0.40805711  0.70058944     0.36100
N3563       N  0.97188273  0.42528762  0.71588491    -0.44200
N3564       N  0.72070276  0.40433543  0.69790410    -0.44200
C3565       C  0.03356539  0.13749730  0.71337803    -0.00600
C3566       C  0.05757104  0.13995847  0.72053757    -0.12500
C3567       C  0.10000005  0.13409452  0.72075264     0.01700
C3568       C  0.11900272  0.12541488  0.71364907    -0.00700
C3569       C  0.09247064  0.11927487  0.70659582    -0.12400
C3570       C  0.05019397  0.12513675  0.70640219     0.01500
H3571       H  0.04428768  0.14846028  0.72594979     0.14500
H3572       H  0.10532386  0.11063580  0.70115488     0.14500
C3573       C  0.02411593  0.11730767  0.69898595     0.36200
C3574       C  0.12418727  0.14027976  0.72829873     0.36100
N3575       N  0.00326250  0.11078730  0.69303423    -0.44200
N3576       N  0.14200636  0.14557325  0.73449532    -0.44200
C3577       C  0.62821505  0.14655119  0.70619432    -0.00600
C3578       C  0.62579745  0.19056909  0.70495522    -0.12500
C3579       C  0.58007648  0.19031635  0.70567242     0.01700
C3580       C  0.53548051  0.14513732  0.70755530    -0.00700
C3581       C  0.53754236  0.10075763  0.70844607    -0.12400
C3582       C  0.58309021  0.10096104  0.70767498     0.01500
H3583       H  0.66015553  0.22588456  0.70392635     0.14500
H3584       H  0.50335071  0.06571331  0.70970320     0.14500
C3585       C  0.58225009  0.05351570  0.70818068     0.36200
C3586       C  0.58105261  0.23784315  0.70518550     0.36100
N3587       N  0.58134420  0.01534740  0.70846385    -0.44200
N3588       N  0.58277365  0.27640161  0.70489193    -0.44200
C3589       C  0.03865124  0.27033388  0.75624667    -0.00600
C3590       C  0.01823469  0.22030255  0.75362147    -0.12500
C3591       C  0.98597161  0.20169711  0.74709101     0.01700
C3592       C  0.97300264  0.23347907  0.74280518    -0.00700
C3593       C  0.99453985  0.28399678  0.74528630    -0.12400
C3594       C  0.02697933  0.30256390  0.75184887     0.01500
H3595       H  0.02702209  0.19479768  0.75674581     0.14500
H3596       H  0.98640042  0.30961435  0.74204535     0.14500
C3597       C  0.04808594  0.35512332  0.75379114     0.36200
C3598       C  0.96670771  0.14937062  0.74512221     0.36100
N3599       N  0.06511495  0.39733106  0.75531226    -0.44200
N3600       N  0.95186676  0.10741744  0.74364522    -0.44200
C3601       C  0.61741076  0.16011461  0.61948678    -0.00600
C3602       C  0.62364612  0.20846471  0.62044950    -0.12500
C3603       C  0.58210685  0.21574778  0.62062176     0.01700
C3604       C  0.53352321  0.17443469  0.61954782    -0.00700
C3605       C  0.52726670  0.12637890  0.61833336    -0.12400
C3606       C  0.56874997  0.11891592  0.61827502     0.01500
H3607       H  0.66090375  0.24027288  0.62145275     0.14500
H3608       H  0.48978205  0.09453511  0.61752616     0.14500
C3609       C  0.56036466  0.06891911  0.61682951     0.36200
C3610       C  0.58971731  0.26483484  0.62263979     0.36100
N3611       N  0.55293338  0.02861692  0.61561688    -0.44200
N3612       N  0.59562183  0.30383567  0.62444213    -0.44200
C3613       C  0.03730380  0.17795090  0.62785020    -0.00600
C3614       C  0.04012573  0.13442141  0.62934027    -0.12500
C3615       C  0.08536667  0.13407703  0.62828817     0.01700
C3616       C  0.12889797  0.17780087  0.62555085    -0.00700
C3617       C  0.12671199  0.22193572  0.62444270    -0.12400
C3618       C  0.08192108  0.22265651  0.62571646     0.01500
H3619       H  0.00634810  0.09985916  0.63094917     0.14500
H3620       H  0.16039336  0.25624832  0.62270873     0.14500
C3621       C  0.08335295  0.27031178  0.62501899     0.36200
C3622       C  0.08511970  0.08749171  0.62970415     0.36100
N3623       N  0.08541099  0.30896868  0.62455884    -0.44200
N3624       N  0.08409481  0.04981346  0.63089817    -0.44200
C3625       C  0.84266138  0.36537129  0.61965694    -0.00600
C3626       C  0.80952750  0.37399999  0.61508362    -0.12500
C3627       C  0.81453402  0.42195608  0.61460188     0.01700
C3628       C  0.85314203  0.46265996  0.61890057    -0.00700
C3629       C  0.88832915  0.45457211  0.62295978    -0.12400
C3630       C  0.88392311  0.40701457  0.62329493     0.01500
H3631       H  0.77853462  0.34284298  0.61205005     0.14500
H3632       H  0.91951941  0.48555662  0.62598567     0.14500
C3633       C  0.92322150  0.40293359  0.62730497     0.36200
C3634       C  0.77894738  0.42741535  0.60971915     0.36100
N3635       N  0.95530287  0.40068674  0.63051443    -0.44200
N3636       N  0.75072784  0.43172861  0.60572901    -0.44200
C3637       C  0.82033873  0.94935805  0.62631650    -0.00600
C3638       C  0.86291897  0.95093308  0.62974405    -0.12500
C3639       C  0.86656471  0.90727919  0.63054578     0.01700
C3640       C  0.82686114  0.86070907  0.62791821    -0.00700
C3641       C  0.78310349  0.85871927  0.62495594    -0.12400
C3642       C  0.77943972  0.90221146  0.62414909     0.01500
H3643       H  0.89440505  0.98679537  0.63153502     0.14500
H3644       H  0.75182879  0.82292693  0.62307850     0.14500
C3645       C  0.73267215  0.89671027  0.62128891     0.36200
C3646       C  0.91274971  0.91214923  0.63356805     0.36100
N3647       N  0.69462051  0.89116740  0.61905917    -0.44200
N3648       N  0.94996065  0.91643570  0.63597225    -0.44200
C3649       C  0.82771760  0.15866197  0.65913505    -0.00600
C3650       C  0.84808969  0.13502483  0.66367767    -0.12500
C3651       C  0.83666952  0.12494466  0.67170730     0.01700
C3652       C  0.80277994  0.13736895  0.67543329    -0.00700
C3653       C  0.78183363  0.16055762  0.67085513    -0.12400
C3654       C  0.79367180  0.17098515  0.66279871     0.01500
H3655       H  0.87438176  0.12551356  0.66097985     0.14500
H3656       H  0.75632063  0.17093784  0.67359543     0.14500
C3657       C  0.76867777  0.19261274  0.65843746     0.36200
C3658       C  0.86424680  0.10587912  0.67599508     0.36100
N3659       N  0.74803606  0.20974762  0.65504987    -0.44200
N3660       N  0.88774451  0.09136176  0.67922086    -0.44200
C3661       C  0.69218719  0.07996507  0.59187196    -0.00600
C3662       C  0.69034385  0.04047291  0.58733849    -0.12500
C3663       C  0.66278230  0.02428355  0.58024807     0.01700
C3664       C  0.63612865  0.04789911  0.57743795    -0.00700
C3665       C  0.63678522  0.08628979  0.58209854    -0.12400
C3666       C  0.66360953  0.10197052  0.58922172     0.01500
H3667       H  0.71134613  0.02253891  0.58925048     0.14500
H3668       H  0.61572267  0.10420166  0.58020204     0.14500
C3669       C  0.65964127  0.13992596  0.59372679     0.36200
C3670       C  0.66420656  0.98445313  0.57591712     0.36100
N3671       N  0.65620498  0.17017021  0.59733557    -0.44200
N3672       N  0.66569503  0.95240617  0.57253190    -0.44200
loop_ 
_geom_bond_atom_site_label_1 
_geom_bond_atom_site_label_2 
_geom_bond_distance 
_geom_bond_site_symmetry_2 
_ccdc_geom_bond_type 
Zr1           O2   2.442       .  S
Zr1           O3   2.407       .  S
Zr1           O4   2.438       .  S
Zr1           O7   2.432       .  S
Zr1           O9   2.384       .  S
Zr1          O10   2.394       .  S
Zr1          O11   2.399       .  S
Zr1          O12   2.391       .  S
O2           H58   0.990       .  S
O2           H66   0.990       .  S
O3           C23   1.279       .  A
O4           C25   1.285       .  A
O5          Zr15   2.423       .  S
O5           C24   1.283       .  A
O6          Zr14   2.453       .  S
O6           C25   1.289       .  A
O7           C24   1.286       .  A
O8          Zr16   2.451       .  S
O8           C23   1.287       .  A
O9          Zr14   2.391       .  S
O9          Zr16   2.356       .  S
O10         Zr15   2.389       .  S
O10         Zr16   2.378       .  S
O10          H45   0.965       .  S
O11         Zr14   2.399       .  S
O11         Zr31   2.398       .  S
O11          H48   0.965       .  S
O12         Zr15   2.388       .  S
O12         Zr31   2.378       .  S
Zr13         O38   2.444       .  S
Zr13         O32   2.480       .  S
Zr13         O40   2.454       .  S
Zr13         O28   2.423       .  S
Zr13         O20   2.431       .  S
Zr13         O21   2.376       .  S
Zr13         O22   2.378       .  S
Zr13         O19   2.294       .  S
Zr14         O33   2.436       .  S
Zr14         O26   2.432   1_545  S
Zr14         O27   2.445       .  S
Zr14         O20   2.406       .  S
Zr14         O21   2.400       .  S
Zr15         O17   2.434       .  S
Zr15         O39   2.436       .  S
Zr15         O41   2.441       .  S
Zr15         O22   2.392       .  S
Zr15         O19   2.267       .  S
Zr16         O42   2.436       .  S
Zr16         O43   2.436       .  S
Zr16         O18   2.435       .  S
Zr16         O20   2.413       .  S
Zr16         O19   2.300       .  S
O17          H54   0.990       .  S
O18          H49   0.990       .  S
O18          H63   0.990   1_545  S
O20          H46   0.966       .  S
O21         Zr31   2.387       .  S
O22         Zr31   2.405       .  S
O22          H47   0.965       .  S
C23        C3601   1.477       .  S
C24        C3625   1.487       .  S
C25        C3661   1.506       .  S
O26          H62   0.990       .  S
O27          C29   1.287   1_545  A
O28          C29   1.280   1_545  A
C29        C3637   1.486       .  S
O30         Zr31   2.443       .  S
O30          H59   0.990       .  S
Zr31         O34   2.440       .  S
Zr31         O35   2.437       .  S
Zr31         O36   2.387       .  S
O32          C37   1.292       .  A
O33          H50   0.990       .  S
O33          H65   0.990       .  S
O34          H51   0.990       .  S
O35          H55   0.989   1_655  S
O35          H64   0.989       .  S
O36          C37   1.275       .  A
C37        C3613   1.489   1_655  S
O38          H57   0.990       .  S
O38          H61   0.991       .  S
O39          H53   0.990       .  S
O39          H60   0.990       .  S
O40          C44   1.288       .  A
O41          C44   1.285       .  A
O42          H52   0.990       .  S
O43          H56   0.990       .  S
C44        C3649   1.491       .  S
Zr67         O68   2.444       .  S
Zr67         O69   2.466       .  S
Zr67         O70   2.472       .  S
Zr67         O73   2.410       .  S
Zr67         O75   2.380       .  S
Zr67         O76   2.394       .  S
Zr67         O77   2.409       .  S
Zr67         O78   2.424       .  S
O68         H124   0.991       .  S
O68         H132   0.991       .  S
O69          C89   1.289       .  A
O70          C91   1.289       .  A
O71         Zr81   2.449       .  S
O71          C90   1.289       .  A
O72         Zr80   2.442       .  S
O72          C91   1.286       .  A
O73          C90   1.281       .  A
O74         Zr82   2.400       .  S
O74          C89   1.277       .  A
O75         Zr80   2.389       .  S
O75         Zr82   2.392       .  S
O76         Zr81   2.402       .  S
O76         Zr82   2.371       .  S
O76         H111   0.966       .  S
O77         Zr80   2.401       .  S
O77         Zr97   2.364       .  S
O77         H114   0.961       .  S
O78         Zr81   2.398       .  S
O78         Zr97   2.398       .  S
Zr79        O104   2.440       .  S
Zr79         O98   2.419       .  S
Zr79        O106   2.437       .  S
Zr79         O94   2.433       .  S
Zr79         O85   2.398       .  S
Zr79         O86   2.401       .  S
Zr79         O87   2.383       .  S
Zr79         O88   2.378       .  S
Zr80         O99   2.437       .  S
Zr80         O92   2.433       .  S
Zr80         O93   2.414       .  S
Zr80         O86   2.400       .  S
Zr80         O87   2.394       .  S
Zr81         O83   2.433       .  S
Zr81        O105   2.435       .  S
Zr81        O107   2.468       .  S
Zr81         O85   2.392       .  S
Zr81         O88   2.383       .  S
Zr82        O108   2.437       .  S
Zr82        O109   2.435       .  S
Zr82         O84   2.436       .  S
Zr82         O85   2.398       .  S
Zr82         O86   2.376       .  S
O83         H120   0.990       .  S
O84         H115   0.990       .  S
O84         H129   0.989       .  S
O86         H112   0.965       .  S
O87         Zr97   2.376       .  S
O88         Zr97   2.352       .  S
O88         H113   0.966       .  S
C89        C3577   1.486       .  S
C90        C3553   1.483       .  S
C91        C3652   1.494       .  S
O92         H128   0.990       .  S
O93          C95   1.282       .  A
O94          C95   1.286       .  A
C95        C3541   1.477   1_545  S
O96         Zr97   2.439       .  S
O96         H125   0.990   1_655  S
Zr97        O100   2.437       .  S
Zr97        O101   2.442   1_655  S
Zr97        O102   2.425       .  S
O98         C103   1.282       .  A
O99         H116   0.989       .  S
O99         H131   0.990       .  S
O100        H117   0.990       .  S
O101        H121   0.990       .  S
O101        H130   0.990       .  S
O102        C103   1.283       .  A
C103       C3565   1.475   1_655  S
O104        H123   0.990       .  S
O104        H127   0.990       .  S
O105        H119   0.990       .  S
O105        H126   0.990       .  S
O106        C110   1.286       .  A
O107        C110   1.293       .  A
O108        H118   0.990       .  S
O109        H122   0.990       .  S
C110       C3592   1.510       .  S
Zr133       O134   2.439       .  S
Zr133       O135   2.407       .  S
Zr133       O136   2.441       .  S
Zr133       O139   2.439       .  S
Zr133       O141   2.382       .  S
Zr133       O142   2.386       .  S
Zr133       O143   2.396       .  S
Zr133       O144   2.393       .  S
O134        H190   0.990       .  S
O134        H198   0.990       .  S
O135        C155   1.278       .  A
O136        C157   1.286       .  A
O137       Zr147   2.422       .  S
O137        C156   1.283       .  A
O138       Zr146   2.443       .  S
O138        C157   1.287       .  A
O139        C156   1.287       .  A
O140       Zr148   2.440       .  S
O140        C155   1.287       .  A
O141       Zr146   2.394       .  S
O141       Zr148   2.363       .  S
O142       Zr147   2.388       .  S
O142       Zr148   2.382       .  S
O142        H177   0.964       .  S
O143       Zr146   2.398       .  S
O143       Zr163   2.391       .  S
O143        H180   0.966       .  S
O144       Zr147   2.388       .  S
O144       Zr163   2.376       .  S
Zr145       O170   2.444       .  S
Zr145       O164   2.460       .  S
Zr145       O172   2.475       .  S
Zr145       O160   2.434       .  S
Zr145       O151   2.389       .  S
Zr145       O152   2.427       .  S
Zr145       O153   2.385       .  S
Zr145       O154   2.391       .  S
Zr146       O165   2.433       .  S
Zr146       O158   2.431   1_655  S
Zr146       O159   2.437       .  S
Zr146       O152   2.398       .  S
Zr146       O153   2.388       .  S
Zr147       O149   2.435       .  S
Zr147       O171   2.441       .  S
Zr147       O173   2.420       .  S
Zr147       O151   2.376       .  S
Zr147       O154   2.393       .  S
Zr148       O174   2.436       .  S
Zr148       O175   2.439       .  S
Zr148       O150   2.438       .  S
Zr148       O151   2.383       .  S
Zr148       O152   2.416       .  S
O149        H186   0.990       .  S
O150        H181   0.990       .  S
O150        H195   0.990       .  S
O152        H178   0.966       .  S
O153       Zr163   2.377       .  S
O154       Zr163   2.397       .  S
O154        H179   0.966       .  S
C155       C3628   1.490       .  S
C156       C3505   1.485       .  S
C157       C3529   1.498       .  S
O158        H194   0.990       .  S
O159        C161   1.286   1_655  A
O160        C161   1.283   1_655  A
C161       C3493   1.488       .  S
O162       Zr163   2.436       .  S
O162        H191   0.990       .  S
Zr163       O166   2.434       .  S
Zr163       O167   2.439       .  S
Zr163       O168   2.388       .  S
O164        C169   1.288       .  A
O165        H182   0.990       .  S
O165        H197   0.990       .  S
O166        H183   0.990       .  S
O167        H187   0.990       .  S
O167        H196   0.990       .  S
O168        C169   1.276       .  A
C169       C3640   1.482       .  S
O170        H189   0.991       .  S
O170        H193   0.989       .  S
O171        H185   0.990       .  S
O171        H192   0.990       .  S
O172        C176   1.290       .  A
O173        C176   1.283       .  A
O174        H184   0.990       .  S
O175        H188   0.990       .  S
C176       C3517   1.489       .  S
Zr199       O200   2.440       .  S
Zr199       O201   2.463       .  S
Zr199       O202   2.473       .  S
Zr199       O205   2.441       .  S
Zr199       O207   2.385       .  S
Zr199       O208   2.391       .  S
Zr199       O209   2.420       .  S
Zr199       O210   2.421       .  S
O200        H256   0.990       .  S
O200        H264   0.988       .  S
O201        C221   1.287       .  A
O202        C223   1.291       .  A
O203       Zr213   2.434       .  S
O203        C222   1.286       .  A
O204       Zr212   2.429       .  S
O204        C223   1.283       .  A
O205        C222   1.284       .  A
O206       Zr214   2.381       .  S
O206        C221   1.274       .  A
O207       Zr212   2.395       .  S
O207       Zr214   2.392       .  S
O208       Zr213   2.397       .  S
O208       Zr214   2.381       .  S
O208        H243   0.966       .  S
O209       Zr212   2.406       .  S
O209       Zr229   2.366       .  S
O209        H246   0.962       .  S
O210       Zr213   2.396       .  S
O210       Zr229   2.406       .  S
Zr211       O236   2.435       .  S
Zr211       O230   2.412       .  S
Zr211       O238   2.430       .  S
Zr211       O226   2.439       .  S
Zr211       O217   2.397       .  S
Zr211       O218   2.396       .  S
Zr211       O219   2.379       .  S
Zr211       O220   2.382       .  S
Zr212       O231   2.441       .  S
Zr212       O224   2.434       .  S
Zr212       O225   2.426       .  S
Zr212       O218   2.391       .  S
Zr212       O219   2.388       .  S
Zr213       O215   2.436       .  S
Zr213       O237   2.434       .  S
Zr213       O239   2.453       .  S
Zr213       O217   2.396       .  S
Zr213       O220   2.381       .  S
Zr214       O240   2.435       .  S
Zr214       O241   2.436       .  S
Zr214       O216   2.438       .  S
Zr214       O217   2.396       .  S
Zr214       O218   2.375       .  S
O215        H252   0.990       .  S
O216        H247   0.990       .  S
O216        H261   0.990       .  S
O218        H244   0.966       .  S
O219       Zr229   2.371       .  S
O220       Zr229   2.350       .  S
O220        H245   0.965       .  S
C221       C3556   1.486       .  S
C222       C3460   1.497       .  S
C223       C3520   1.488       .  S
O224        H260   0.990       .  S
O225        C227   1.285       .  A
O226        C227   1.287       .  A
C227       C3472   1.485   1_655  S
O228       Zr229   2.437       .  S
O228        H257   0.990       .  S
Zr229       O232   2.437       .  S
Zr229       O233   2.438       .  S
Zr229       O234   2.425       .  S
O230        C235   1.281       .  A
O231        H248   0.990       .  S
O231        H263   0.990       .  S
O232        H249   0.990       .  S
O233        H253   0.990       .  S
O233        H262   0.990       .  S
O234        C235   1.284       .  A
C235       C3544   1.484       .  S
O236        H255   0.990       .  S
O236        H259   0.990       .  S
O237        H251   0.990       .  S
O237        H258   0.989       .  S
O238        C242   1.287       .  A
O239        C242   1.288       .  A
O240        H250   0.991       .  S
O241        H254   0.990       .  S
C242       C3484   1.501       .  S
Zr265       O266   2.440       .  S
Zr265       O267   2.414       .  S
Zr265       O268   2.442       .  S
Zr265       O271   2.440       .  S
Zr265       O273   2.380       .  S
Zr265       O274   2.381       .  S
Zr265       O275   2.402       .  S
Zr265       O276   2.394       .  S
O266        H322   0.991       .  S
O266        H330   0.990       .  S
O267        C287   1.279       .  A
O268        C289   1.287       .  A
O269       Zr279   2.414       .  S
O269        C288   1.280       .  A
O270       Zr278   2.446       .  S
O270        C289   1.288       .  A
O271        C288   1.286       .  A
O272       Zr280   2.446       .  S
O272        C287   1.288       .  A
O273       Zr278   2.394       .  S
O273       Zr280   2.361       .  S
O274       Zr279   2.395       .  S
O274       Zr280   2.380       .  S
O274        H309   0.966       .  S
O275       Zr278   2.411       .  S
O275       Zr295   2.396       .  S
O275        H312   0.965       .  S
O276       Zr279   2.392       .  S
O276       Zr295   2.383       .  S
Zr277       O302   2.443       .  S
Zr277       O296   2.451       .  S
Zr277       O304   2.458       .  S
Zr277       O292   2.419       .  S
Zr277       O283   2.386       .  S
Zr277       O284   2.424       .  S
Zr277       O285   2.381       .  S
Zr277       O286   2.380       .  S
Zr278       O297   2.437       .  S
Zr278       O290   2.434       .  S
Zr278       O291   2.462       .  S
Zr278       O284   2.398       .  S
Zr278       O285   2.394       .  S
Zr279       O281   2.436       .  S
Zr279       O303   2.436       .  S
Zr279       O305   2.427       .  S
Zr279       O283   2.370       .  S
Zr279       O286   2.395       .  S
Zr280       O306   2.433       .  S
Zr280       O307   2.435       .  S
Zr280       O282   2.437       .  S
Zr280       O283   2.381       .  S
Zr280       O284   2.414       .  S
O281        H318   0.990       .  S
O282        H313   0.990       .  S
O282        H327   0.990       .  S
O284        H310   0.966       .  S
O285       Zr295   2.377       .  S
O286       Zr295   2.393       .  S
O286        H311   0.965       .  S
C287       C3508   1.495       .  S
C288       C3604   1.469       .  S
C289       C3445   1.496       .  S
O290        H326   0.990       .  S
O291        C293   1.291       .  A
O292        C293   1.279       .  A
C293       C3616   1.485       .  S
O294       Zr295   2.434       .  S
O294        H323   0.990       .  S
Zr295       O298   2.435       .  S
Zr295       O299   2.438       .  S
Zr295       O300   2.395       .  S
O296        C301   1.285       .  A
O297        H314   0.990       .  S
O297        H329   0.990       .  S
O298        H315   0.990       .  S
O299        H319   0.990   1_545  S
O299        H328   0.990       .  S
O300        C301   1.276       .  A
C301       C3496   1.479   1_545  S
O302        H321   0.991       .  S
O302        H325   0.990       .  S
O303        H317   0.990       .  S
O303        H324   0.990       .  S
O304        C308   1.289       .  A
O305        C308   1.283       .  A
O306        H316   0.990       .  S
O307        H320   0.990       .  S
C308       C3433   1.487       .  S
Zr331       O332   2.441       .  S
Zr331       O333   2.463       .  S
Zr331       O334   2.467       .  S
Zr331       O337   2.429       .  S
Zr331       O339   2.386       .  S
Zr331       O340   2.389       .  S
Zr331       O341   2.419       .  S
Zr331       O342   2.423       .  S
O332        H388   0.991       .  S
O332        H396   0.990       .  S
O333        C353   1.287       .  A
O334        C355   1.290       .  A
O335       Zr345   2.441       .  S
O335        C354   1.287       .  A
O336       Zr344   2.435       .  S
O336        C355   1.285       .  A
O337        C354   1.283       .  A
O338       Zr346   2.392       .  S
O338        C353   1.278       .  A
O339       Zr344   2.397       .  S
O339       Zr346   2.387       .  S
O340       Zr345   2.399       .  S
O340       Zr346   2.374       .  S
O340        H375   0.967       .  S
O341       Zr344   2.412       .  S
O341       Zr361   2.366       .  S
O341        H378   0.959       .  S
O342       Zr345   2.399       .  S
O342       Zr361   2.399       .  S
Zr343       O368   2.438       .  S
Zr343       O362   2.416       .  S
Zr343       O370   2.413       .  S
Zr343       O358   2.425       .  S
Zr343       O349   2.393       .  S
Zr343       O350   2.398       .  S
Zr343       O351   2.376       .  S
Zr343       O352   2.383       .  S
Zr344       O363   2.439       .  S
Zr344       O356   2.434       .  S
Zr344       O357   2.441       .  S
Zr344       O350   2.392       .  S
Zr344       O351   2.380       .  S
Zr345       O347   2.434       .  S
Zr345       O369   2.435       .  S
Zr345       O371   2.464       .  S
Zr345       O349   2.394       .  S
Zr345       O352   2.384       .  S
Zr346       O372   2.434       .  S
Zr346       O373   2.437       .  S
Zr346       O348   2.440       .  S
Zr346       O349   2.397       .  S
Zr346       O350   2.381       .  S
O347        H384   0.990       .  S
O348        H379   0.990       .  S
O348        H393   0.990       .  S
O350        H376   0.966       .  S
O351       Zr361   2.373       .  S
O352       Zr361   2.356       .  S
O352        H377   0.965       .  S
C353       C3457   1.489       .  S
C354       C3580   1.482       .  S
C355       C3436   1.487       .  S
O356        H392   0.990       .  S
O357        C359   1.287       .  A
O358        C359   1.283       .  A
C359       C3568   1.484       .  S
O360       Zr361   2.438       .  S
O360        H389   0.990       .  S
Zr361       O364   2.436       .  S
Zr361       O365   2.437   1_545  S
Zr361       O366   2.425   1_545  S
O362        C367   1.282   1_545  A
O363        H380   0.989       .  S
O363        H395   0.990       .  S
O364        H381   0.990   1_545  S
O365        H385   0.990       .  S
O365        H394   0.990       .  S
O366        C367   1.283       .  A
C367       C3469   1.476       .  S
O368        H387   0.990       .  S
O368        H391   0.989       .  S
O369        H383   0.990       .  S
O369        H390   0.990       .  S
O370        C374   1.281       .  A
O371        C374   1.291       .  A
O372        H382   0.989       .  S
O373        H386   0.990       .  S
C374       C3424   1.503       .  S
Zr397       O398   2.438       .  S
Zr397       O399   2.411       .  S
Zr397       O400   2.432       .  S
Zr397       O403   2.441       .  S
Zr397       O405   2.381       .  S
Zr397       O406   2.385       .  S
Zr397       O407   2.397       .  S
Zr397       O408   2.388       .  S
O398        H454   0.990       .  S
O398        H462   0.990       .  S
O399        C419   1.280       .  A
O400        C421   1.286       .  A
O401       Zr411   2.434       .  S
O401        C420   1.286       .  A
O402       Zr410   2.459       .  S
O402        C421   1.290       .  A
O403        C420   1.287       .  A
O404       Zr412   2.441       .  S
O404        C419   1.286       .  A
O405       Zr410   2.390       .  S
O405       Zr412   2.360       .  S
O406       Zr411   2.385       .  S
O406       Zr412   2.385       .  S
O406        H441   0.964       .  S
O407       Zr410   2.396       .  S
O407       Zr427   2.395       .  S
O407        H444   0.965       .  S
O408       Zr411   2.385       .  S
O408       Zr427   2.375       .  S
Zr409       O434   2.442       .  S
Zr409       O428   2.478       .  S
Zr409       O436   2.475       .  S
Zr409       O424   2.421       .  S
Zr409       O415   2.384       .  S
Zr409       O416   2.430       .  S
Zr409       O417   2.385       .  S
Zr409       O418   2.383       .  S
Zr410       O429   2.436       .  S
Zr410       O422   2.435       .  S
Zr410       O423   2.441       .  S
Zr410       O416   2.403       .  S
Zr410       O417   2.394       .  S
Zr411       O413   2.436       .  S
Zr411       O435   2.439       .  S
Zr411       O437   2.431       .  S
Zr411       O415   2.376       .  S
Zr411       O418   2.394       .  S
Zr412       O438   2.433       .  S
Zr412       O439   2.436       .  S
Zr412       O414   2.440       .  S
Zr412       O415   2.382       .  S
Zr412       O416   2.410       .  S
O413        H450   0.990       .  S
O414        H445   0.990       .  S
O414        H459   0.990       .  S
O416        H442   0.966       .  S
O417       Zr427   2.378       .  S
O418       Zr427   2.398       .  S
O418        H443   0.965       .  S
C419       C3385   1.470       .  S
C420       C3409   1.482       .  S
C421       C3349   1.497       .  S
O422        H458   0.990       .  S
O423        C425   1.287       .  A
O424        C425   1.280       .  A
C425       C3400   1.479       .  S
O426       Zr427   2.438       .  S
O426        H455   0.990       .  S
Zr427       O430   2.437       .  S
Zr427       O431   2.437       .  S
Zr427       O432   2.394       .  S
O428        C433   1.292       .  A
O429        H446   0.990       .  S
O429        H461   0.990       .  S
O430        H447   0.990       .  S
O431        H451   0.990   1_455  S
O431        H460   0.990       .  S
O432        C433   1.278       .  A
C433       C3373   1.493   1_455  S
O434        H453   0.991       .  S
O434        H457   0.989       .  S
O435        H449   0.990       .  S
O435        H456   0.989       .  S
O436        C440   1.292       .  A
O437        C440   1.284       .  A
O438        H448   0.990       .  S
O439        H452   0.990       .  S
C440       C3364   1.501       .  S
Zr463       O464   2.442       .  S
Zr463       O465   2.468       .  S
Zr463       O466   2.465       .  S
Zr463       O469   2.411       .  S
Zr463       O471   2.380       .  S
Zr463       O472   2.386       .  S
Zr463       O473   2.408       .  S
Zr463       O474   2.420       .  S
O464        H520   0.990       .  S
O464        H528   0.990       .  S
O465        C485   1.290       .  A
O466        C487   1.289       .  A
O467       Zr477   2.456       .  S
O467        C486   1.290       .  A
O468       Zr476   2.437       .  S
O468        C487   1.284       .  A
O469        C486   1.280       .  A
O470       Zr478   2.389       .  S
O470        C485   1.276       .  A
O471       Zr476   2.397       .  S
O471       Zr478   2.396       .  S
O472       Zr477   2.394       .  S
O472       Zr478   2.372       .  S
O472        H507   0.966       .  S
O473       Zr476   2.397       .  S
O473       Zr493   2.377       .  S
O473        H510   0.963       .  S
O474       Zr477   2.394       .  S
O474       Zr493   2.405       .  S
Zr475       O500   2.443       .  S
Zr475       O494   2.425       .  S
Zr475       O502   2.433       .  S
Zr475       O490   2.425       .  S
Zr475       O481   2.397       .  S
Zr475       O482   2.401       .  S
Zr475       O483   2.381       .  S
Zr475       O484   2.384       .  S
Zr476       O495   2.439       .  S
Zr476       O488   2.436       .  S
Zr476       O489   2.415       .  S
Zr476       O482   2.398       .  S
Zr476       O483   2.389       .  S
Zr477       O479   2.435       .  S
Zr477       O501   2.435       .  S
Zr477       O503   2.466       .  S
Zr477       O481   2.393       .  S
Zr477       O484   2.393       .  S
Zr478       O504   2.436       .  S
Zr478       O505   2.436       .  S
Zr478       O480   2.436       .  S
Zr478       O481   2.393       .  S
Zr478       O482   2.373       .  S
O479        H516   0.990       .  S
O480        H511   0.990       .  S
O480        H525   0.990       .  S
O482        H508   0.965       .  S
O483       Zr493   2.367       .  S
O484       Zr493   2.360       .  S
O484        H509   0.964       .  S
C485       C3325   1.489       .  S
C486       C3313   1.493       .  S
C487       C3361   1.502       .  S
O488        H524   0.990       .  S
O489        C491   1.283       .  A
O490        C491   1.284       .  A
C491       C3304   1.470       .  S
O492       Zr493   2.438       .  S
O492        H521   0.990   1_455  S
Zr493       O496   2.439       .  S
Zr493       O497   2.439   1_455  S
Zr493       O498   2.446       .  S
O494        C499   1.283       .  A
O495        H512   0.990       .  S
O495        H527   0.990       .  S
O496        H513   0.990   1_455  S
O497        H517   0.990       .  S
O497        H526   0.990       .  S
O498        C499   1.288       .  A
C499       C3337   1.486   1_455  S
O500        H519   0.990       .  S
O500        H523   0.990       .  S
O501        H515   0.990       .  S
O501        H522   0.990       .  S
O502        C506   1.288       .  A
O503        C506   1.292       .  A
O504        H514   0.990       .  S
O505        H518   0.990       .  S
C506       C3589   1.509       .  S
Zr529       O530   2.439       .  S
Zr529       O531   2.405       .  S
Zr529       O532   2.431       .  S
Zr529       O535   2.436       .  S
Zr529       O537   2.385       .  S
Zr529       O538   2.386       .  S
Zr529       O539   2.397       .  S
Zr529       O540   2.394       .  S
O530        H586   0.991       .  S
O530        H594   0.990       .  S
O531        C551   1.278       .  A
O532        C553   1.283       .  A
O533       Zr543   2.420       .  S
O533        C552   1.282       .  A
O534       Zr542   2.451       .  S
O534        C553   1.288       .  A
O535        C552   1.285       .  A
O536       Zr544   2.425       .  S
O536        C551   1.284       .  A
O537       Zr542   2.392       .  S
O537       Zr544   2.366       .  S
O538       Zr543   2.391       .  S
O538       Zr544   2.384       .  S
O538        H573   0.967       .  S
O539       Zr542   2.399       .  S
O539       Zr559   2.390       .  S
O539        H576   0.965       .  S
O540       Zr543   2.390       .  S
O540       Zr559   2.383       .  S
Zr541       O566   2.442       .  S
Zr541       O560   2.463       .  S
Zr541       O568   2.468       .  S
Zr541       O556   2.426       .  S
Zr541       O547   2.387       .  S
Zr541       O548   2.425       .  S
Zr541       O549   2.385       .  S
Zr541       O550   2.389       .  S
Zr542       O561   2.437       .  S
Zr542       O554   2.428   1_565  S
Zr542       O555   2.451       .  S
Zr542       O548   2.403       .  S
Zr542       O549   2.390       .  S
Zr543       O545   2.437       .  S
Zr543       O567   2.441       .  S
Zr543       O569   2.430       .  S
Zr543       O547   2.375       .  S
Zr543       O550   2.396       .  S
Zr544       O570   2.435       .  S
Zr544       O571   2.436       .  S
Zr544       O546   2.436       .  S
Zr544       O547   2.378       .  S
Zr544       O548   2.403       .  S
O545        H582   0.990       .  S
O546        H577   0.990       .  S
O546        H591   0.990       .  S
O548        H574   0.966       .  S
O549       Zr559   2.378       .  S
O550       Zr559   2.398       .  S
O550        H575   0.966       .  S
C551       C3265   1.479       .  S
C552       C3388   1.481       .  S
C553       C3253   1.494       .  S
O554        H590   0.990       .  S
O555        C557   1.288       .  A
O556        C557   1.281       .  A
C557       C3376   1.486   1_565  S
O558       Zr559   2.434       .  S
O558        H587   0.990       .  S
Zr559       O562   2.434       .  S
Zr559       O563   2.438       .  S
Zr559       O564   2.389       .  S
O560        C565   1.288       .  A
O561        H578   0.990       .  S
O561        H593   0.990       .  S
O562        H579   0.990       .  S
O563        H583   0.990       .  S
O563        H592   0.990       .  S
O564        C565   1.276       .  A
C565       C3280   1.485       .  S
O566        H585   0.990       .  S
O566        H589   0.991       .  S
O567        H581   0.990       .  S
O567        H588   0.990       .  S
O568        C572   1.291       .  A
O569        C572   1.284       .  A
O570        H580   0.990       .  S
O571        H584   0.990       .  S
C572       C3289   1.498       .  S
Zr595       O596   2.444       .  S
Zr595       O597   2.465       .  S
Zr595       O598   2.461       .  S
Zr595       O601   2.412       .  S
Zr595       O603   2.380       .  S
Zr595       O604   2.389       .  S
Zr595       O605   2.407       .  S
Zr595       O606   2.428       .  S
O596        H652   0.991       .  S
O596        H660   0.990       .  S
O597        C617   1.288       .  A
O598        C619   1.288       .  A
O599       Zr609   2.449       .  S
O599        C618   1.288       .  A
O600       Zr608   2.427       .  S
O600        C619   1.281       .  A
O601        C618   1.280       .  A
O602       Zr610   2.400       .  S
O602        C617   1.278       .  A
O603       Zr608   2.398       .  S
O603       Zr610   2.391       .  S
O604       Zr609   2.387       .  S
O604       Zr610   2.376       .  S
O604        H639   0.966       .  S
O605       Zr608   2.399       .  S
O605       Zr625   2.384       .  S
O605        H642   0.964       .  S
O606       Zr609   2.400       .  S
O606       Zr625   2.410       .  S
Zr607       O632   2.435       .  S
Zr607       O626   2.423       .  S
Zr607       O634   2.438       .  S
Zr607       O622   2.441       .  S
Zr607       O613   2.404       .  S
Zr607       O614   2.401       .  S
Zr607       O615   2.376       .  S
Zr607       O616   2.384       .  S
Zr608       O627   2.434       .  S
Zr608       O620   2.435       .  S
Zr608       O621   2.425       .  S
Zr608       O614   2.393       .  S
Zr608       O615   2.385       .  S
Zr609       O611   2.434       .  S
Zr609       O633   2.434       .  S
Zr609       O635   2.460       .  S
Zr609       O613   2.395       .  S
Zr609       O616   2.387       .  S
Zr610       O636   2.436       .  S
Zr610       O637   2.436       .  S
Zr610       O612   2.438       .  S
Zr610       O613   2.405       .  S
Zr610       O614   2.378       .  S
O611        H648   0.990       .  S
O612        H643   0.990       .  S
O612        H657   0.990       .  S
O614        H640   0.966       .  S
O615       Zr625   2.368       .  S
O616       Zr625   2.359       .  S
O616        H641   0.965       .  S
C617       C3232   1.481       .  S
C618       C3328   1.482       .  S
C619       C3292   1.493       .  S
O620        H656   0.990       .  S
O621        C623   1.285       .  A
O622        C623   1.288       .  A
C623       C3340   1.487   1_565  S
O624       Zr625   2.438       .  S
O624        H653   0.990       .  S
Zr625       O628   2.439       .  S
Zr625       O629   2.442       .  S
Zr625       O630   2.439       .  S
O626        C631   1.282       .  A
O627        H644   0.990       .  S
O627        H659   0.990       .  S
O628        H645   0.990       .  S
O629        H649   0.990       .  S
O629        H658   0.990       .  S
O630        C631   1.285       .  A
C631       C3241   1.474       .  S
O632        H651   0.990       .  S
O632        H655   0.990       .  S
O633        H647   0.990       .  S
O633        H654   0.990       .  S
O634        C638   1.287       .  A
O635        C638   1.290       .  A
O636        H646   0.990       .  S
O637        H650   0.990       .  S
C638       C3481   1.500       .  S
Zr661       O662   2.438       .  S
Zr661       O663   2.426       .  S
Zr661       O664   2.422       .  S
Zr661       O667   2.423       .  S
Zr661       O669   2.377       .  S
Zr661       O670   2.379       .  S
Zr661       O671   2.403       .  S
Zr661       O672   2.392       .  S
O662        H718   0.990       .  S
O662        H726   0.990       .  S
O663        C683   1.283       .  A
O664        C685   1.282       .  A
O665       Zr675   2.423       .  S
O665        C684   1.282       .  A
O666       Zr674   2.449       .  S
O666        C685   1.289       .  A
O667        C684   1.284       .  A
O668       Zr676   2.440       .  S
O668        C683   1.285       .  A
O669       Zr674   2.390       .  S
O669       Zr676   2.361       .  S
O670       Zr675   2.395       .  S
O670       Zr676   2.383       .  S
O670        H705   0.966       .  S
O671       Zr674   2.402       .  S
O671       Zr691   2.398       .  S
O671        H708   0.967       .  S
O672       Zr675   2.381       .  S
O672       Zr691   2.380       .  S
Zr673       O698   2.444       .  S
Zr673       O692   2.460       .  S
Zr673       O700   2.467       .  S
Zr673       O688   2.427       .  S
Zr673       O679   2.386       .  S
Zr673       O680   2.421       .  S
Zr673       O681   2.381       .  S
Zr673       O682   2.388       .  S
Zr674       O693   2.438       .  S
Zr674       O686   2.436   1_455  S
Zr674       O687   2.444       .  S
Zr674       O680   2.402       .  S
Zr674       O681   2.387       .  S
Zr675       O677   2.435       .  S
Zr675       O699   2.440       .  S
Zr675       O701   2.427       .  S
Zr675       O679   2.379       .  S
Zr675       O682   2.394       .  S
Zr676       O702   2.434       .  S
Zr676       O703   2.435       .  S
Zr676       O678   2.435       .  S
Zr676       O679   2.380       .  S
Zr676       O680   2.414       .  S
O677        H714   0.990       .  S
O678        H709   0.990       .  S
O678        H723   0.990       .  S
O680        H706   0.966       .  S
O681       Zr691   2.372       .  S
O682       Zr691   2.401       .  S
O682        H707   0.966       .  S
C683       C3412   1.489       .  S
C684       C3268   1.476       .  S
C685       C3205   1.498       .  S
O686        H722   0.990       .  S
O687        C689   1.287   1_455  A
O688        C689   1.280   1_455  A
C689       C3277   1.494       .  S
O690       Zr691   2.438       .  S
O690        H719   0.990       .  S
Zr691       O694   2.438       .  S
Zr691       O695   2.441       .  S
Zr691       O696   2.388       .  S
O692        C697   1.288       .  A
O693        H710   0.990       .  S
O693        H725   0.990       .  S
O694        H711   0.990       .  S
O695        H715   0.990       .  S
O695        H724   0.990       .  S
O696        C697   1.276       .  A
C697       C3397   1.472   1_565  S
O698        H717   0.991       .  S
O698        H721   0.991       .  S
O699        H713   0.990       .  S
O699        H720   0.990       .  S
O700        C704   1.291       .  A
O701        C704   1.285       .  A
O702        H712   0.990       .  S
O703        H716   0.990       .  S
C704       C3217   1.496       .  S
Zr727       O728   2.438       .  S
Zr727       O729   2.471       .  S
Zr727       O730   2.479       .  S
Zr727       O733   2.431       .  S
Zr727       O735   2.384       .  S
Zr727       O736   2.389       .  S
Zr727       O737   2.413       .  S
Zr727       O738   2.420       .  S
O728        H784   0.989       .  S
O728        H792   0.990       .  S
O729        C749   1.290       .  A
O730        C751   1.292       .  A
O731       Zr741   2.443       .  S
O731        C750   1.287       .  A
O732       Zr740   2.421       .  S
O732        C751   1.283       .  A
O733        C750   1.283       .  A
O734       Zr742   2.368       .  S
O734        C749   1.273       .  A
O735       Zr740   2.397       .  S
O735       Zr742   2.392       .  S
O736       Zr741   2.389       .  S
O736       Zr742   2.379       .  S
O736        H771   0.966       .  S
O737       Zr740   2.405       .  S
O737       Zr757   2.374       .  S
O737        H774   0.962       .  S
O738       Zr741   2.396       .  S
O738       Zr757   2.399       .  S
Zr739       O764   2.442       .  S
Zr739       O758   2.410       .  S
Zr739       O766   2.432       .  S
Zr739       O754   2.443       .  S
Zr739       O745   2.395       .  S
Zr739       O746   2.396       .  S
Zr739       O747   2.377       .  S
Zr739       O748   2.388       .  S
Zr740       O759   2.436       .  S
Zr740       O752   2.435       .  S
Zr740       O753   2.427       .  S
Zr740       O746   2.395       .  S
Zr740       O747   2.383       .  S
Zr741       O743   2.434       .  S
Zr741       O765   2.433       .  S
Zr741       O767   2.449       .  S
Zr741       O745   2.401       .  S
Zr741       O748   2.386       .  S
Zr742       O768   2.435       .  S
Zr742       O769   2.436       .  S
Zr742       O744   2.441       .  S
Zr742       O745   2.391       .  S
Zr742       O746   2.372       .  S
O743        H780   0.990       .  S
O744        H775   0.990       .  S
O744        H789   0.990       .  S
O746        H772   0.966       .  S
O747       Zr757   2.377       .  S
O748       Zr757   2.358       .  S
O748        H773   0.964       .  S
C749       C3316   1.479       .  S
C750       C3229   1.488       .  S
C751       C3220   1.497       .  S
O752        H788   0.990       .  S
O753        C755   1.284       .  A
O754        C755   1.287       .  A
C755       C3244   1.479   1_455  S
O756       Zr757   2.440       .  S
O756        H785   0.991   1_565  S
Zr757       O760   2.439       .  S
Zr757       O761   2.441   1_565  S
Zr757       O762   2.414       .  S
O758        C763   1.281       .  A
O759        H776   0.990       .  S
O759        H791   0.990       .  S
O760        H777   0.990       .  S
O761        H781   0.990       .  S
O761        H790   0.989   1_545  S
O762        C763   1.281       .  A
C763       C3301   1.479   1_565  S
O764        H783   0.990       .  S
O764        H787   0.990       .  S
O765        H779   0.990       .  S
O765        H786   0.990       .  S
O766        C770   1.287       .  A
O767        C770   1.287       .  A
O768        H778   0.990       .  S
O769        H782   0.990       .  S
C770       C3421   1.501       .  S
Zr793       O794   2.439       .  S
Zr793       O795   2.409       .  S
Zr793       O796   2.436       .  S
Zr793       O799   2.434       .  S
Zr793       O801   2.381       .  S
Zr793       O802   2.388       .  S
Zr793       O803   2.396       .  S
Zr793       O804   2.396       .  S
O794        H850   0.990       .  S
O794        H858   0.990       .  S
O795        C815   1.279       .  A
O796        C817   1.286       .  A
O797       Zr807   2.418       .  S
O797        C816   1.282       .  A
O798       Zr806   2.437       .  S
O798        C817   1.286       .  A
O799        C816   1.286       .  A
O800       Zr808   2.448       .  S
O800        C815   1.288       .  A
O801       Zr806   2.390       .  S
O801       Zr808   2.361       .  S
O802       Zr807   2.389       .  S
O802       Zr808   2.383       .  S
O802        H837   0.965       .  S
O803       Zr806   2.396       .  S
O803       Zr823   2.390       .  S
O803        H840   0.966       .  S
O804       Zr807   2.386       .  S
O804       Zr823   2.374       .  S
Zr805       O830   2.438       .  S
Zr805       O824   2.467       .  S
Zr805       O832   2.482       .  S
Zr805       O820   2.425       .  S
Zr805       O811   2.385       .  S
Zr805       O812   2.426       .  S
Zr805       O813   2.383       .  S
Zr805       O814   2.388       .  S
Zr806       O825   2.434       .  S
Zr806       O818   2.433       .  S
Zr806       O819   2.444       .  S
Zr806       O812   2.391       .  S
Zr806       O813   2.385       .  S
Zr807       O809   2.437       .  S
Zr807       O831   2.439       .  S
Zr807       O833   2.432       .  S
Zr807       O811   2.374       .  S
Zr807       O814   2.393       .  S
Zr808       O834   2.436       .  S
Zr808       O835   2.436       .  S
Zr808       O810   2.437       .  S
Zr808       O811   2.382       .  S
Zr808       O812   2.413       .  S
O809        H846   0.990       .  S
O810        H841   0.990       .  S
O810        H855   0.990       .  S
O812        H838   0.967       .  S
O813       Zr823   2.380       .  S
O814       Zr823   2.403       .  S
O814        H839   0.965       .  S
C815       C3181   1.474       .  S
C816       C3157   1.482       .  S
C817       C3448   1.489       .  S
O818        H854   0.990       .  S
O819        C821   1.288       .  A
O820        C821   1.281       .  A
C821       C3145   1.485       .  S
O822       Zr823   2.440       .  S
O822        H851   0.990       .  S
Zr823       O826   2.435       .  S
Zr823       O827   2.443       .  S
Zr823       O828   2.381       .  S
O824        C829   1.289       .  A
O825        H842   0.990       .  S
O825        H857   0.990       .  S
O826        H843   0.990       .  S
O827        H847   0.990       .  S
O827        H856   0.989       .  S
O828        C829   1.275       .  A
C829       C3169   1.484       .  S
O830        H849   0.989       .  S
O830        H853   0.990       .  S
O831        H845   0.990       .  S
O831        H852   0.990       .  S
O832        C836   1.292       .  A
O833        C836   1.284       .  A
O834        H844   0.990       .  S
O835        H848   0.991       .  S
C836       C3193   1.493       .  S
Zr859       O860   2.441       .  S
Zr859       O861   2.452       .  S
Zr859       O862   2.482       .  S
Zr859       O865   2.422       .  S
Zr859       O867   2.380       .  S
Zr859       O868   2.394       .  S
Zr859       O869   2.408       .  S
Zr859       O870   2.419       .  S
O860        H916   0.990       .  S
O860        H924   0.990       .  S
O861        C881   1.286       .  A
O862        C883   1.291       .  A
O863       Zr873   2.451       .  S
O863        C882   1.289       .  A
O864       Zr872   2.425       .  S
O864        C883   1.283       .  A
O865        C882   1.281       .  A
O866       Zr874   2.390       .  S
O866        C881   1.275       .  A
O867       Zr872   2.394       .  S
O867       Zr874   2.397       .  S
O868       Zr873   2.393       .  S
O868       Zr874   2.377       .  S
O868        H903   0.966       .  S
O869       Zr872   2.395       .  S
O869       Zr889   2.378       .  S
O869        H906   0.963       .  S
O870       Zr873   2.401       .  S
O870       Zr889   2.400       .  S
Zr871       O896   2.443       .  S
Zr871       O890   2.424       .  S
Zr871       O898   2.414       .  S
Zr871       O886   2.430       .  S
Zr871       O877   2.400       .  S
Zr871       O878   2.394       .  S
Zr871       O879   2.374       .  S
Zr871       O880   2.384       .  S
Zr872       O891   2.433       .  S
Zr872       O884   2.434       .  S
Zr872       O885   2.417       .  S
Zr872       O878   2.394       .  S
Zr872       O879   2.386       .  S
Zr873       O875   2.434       .  S
Zr873       O897   2.436       .  S
Zr873       O899   2.462       .  S
Zr873       O877   2.396       .  S
Zr873       O880   2.391       .  S
Zr874       O900   2.438       .  S
Zr874       O901   2.437       .  S
Zr874       O876   2.438       .  S
Zr874       O877   2.396       .  S
Zr874       O878   2.376       .  S
O875        H912   0.990       .  S
O876        H907   0.990       .  S
O876        H921   0.990       .  S
O878        H904   0.966       .  S
O879       Zr889   2.377       .  S
O880       Zr889   2.353       .  S
O880        H905   0.965       .  S
C881       C3109   1.470       .  S
C882       C3085   1.490       .  S
C883       C3196   1.496       .  S
O884        H920   0.990       .  S
O885        C887   1.282       .  A
O886        C887   1.285       .  A
C887       C3100   1.484       .  S
O888       Zr889   2.437       .  S
O888        H917   0.990       .  S
Zr889       O892   2.438       .  S
Zr889       O893   2.440       .  S
Zr889       O894   2.425       .  S
O890        C895   1.284       .  A
O891        H908   0.990       .  S
O891        H923   0.990       .  S
O892        H909   0.990       .  S
O893        H913   0.990       .  S
O893        H922   0.990       .  S
O894        C895   1.282       .  A
C895       C3121   1.490       .  S
O896        H915   0.990       .  S
O896        H919   0.990       .  S
O897        H911   0.990       .  S
O897        H918   0.990       .  S
O898        C902   1.281       .  A
O899        C902   1.291       .  A
O900        H910   0.990       .  S
O901        H914   0.990       .  S
C902       C3133   1.495       .  S
Zr925       O926   2.438       .  S
Zr925       O927   2.422       .  S
Zr925       O928   2.440       .  S
Zr925       O931   2.436       .  S
Zr925       O933   2.380       .  S
Zr925       O934   2.386       .  S
Zr925       O935   2.400   1_545  S
Zr925       O936   2.398       .  S
O926        H982   0.990       .  S
O926        H990   0.990       .  S
O927        C947   1.283       .  A
O928        C949   1.286       .  A
O929       Zr939   2.421       .  S
O929        C948   1.284       .  A
O930       Zr938   2.453       .  S
O930        C949   1.288   1_565  A
O931        C948   1.285       .  A
O932       Zr940   2.434       .  S
O932        C947   1.284       .  A
O933       Zr938   2.389   1_545  S
O933       Zr940   2.368       .  S
O934       Zr939   2.388       .  S
O934       Zr940   2.382       .  S
O934        H969   0.966       .  S
O935       Zr938   2.401       .  S
O935       Zr955   2.401       .  S
O935        H972   0.965       .  S
O936       Zr939   2.387       .  S
O936       Zr955   2.377   1_545  S
Zr937       O962   2.441       .  S
Zr937       O956   2.472       .  S
Zr937       O964   2.478       .  S
Zr937       O952   2.434       .  S
Zr937       O943   2.386   1_565  S
Zr937       O944   2.425       .  S
Zr937       O945   2.386       .  S
Zr937       O946   2.385       .  S
Zr938       O957   2.434       .  S
Zr938       O950   2.432       .  S
Zr938       O951   2.439       .  S
Zr938       O944   2.402       .  S
Zr938       O945   2.395       .  S
Zr939       O941   2.438       .  S
Zr939       O963   2.438       .  S
Zr939       O965   2.427       .  S
Zr939       O943   2.373       .  S
Zr939       O946   2.396   1_545  S
Zr940       O966   2.435       .  S
Zr940       O967   2.435       .  S
Zr940       O942   2.436       .  S
Zr940       O943   2.375       .  S
Zr940       O944   2.406   1_545  S
O941        H978   0.990       .  S
O942        H973   0.990       .  S
O942        H987   0.990       .  S
O944        H970   0.966       .  S
O945       Zr955   2.377       .  S
O946       Zr955   2.395       .  S
O946        H971   0.966       .  S
C947       C3073   1.495       .  S
C948       C3184   1.480       .  S
C949       C3664   1.504       .  S
O950        H986   0.990       .  S
O951        C953   1.287       .  A
O952        C953   1.284       .  A
C953       C3172   1.492       .  S
O954       Zr955   2.434   1_545  S
O954        H983   0.990       .  S
Zr955       O958   2.433       .  S
Zr955       O959   2.440       .  S
Zr955       O960   2.390       .  S
O956        C961   1.291       .  A
O957        H974   0.990       .  S
O957        H989   0.990       .  S
O958        H975   0.990       .  S
O959        H979   0.990       .  S
O959        H988   0.990   1_565  S
O960        C961   1.277       .  A
C961       C3064   1.493       .  S
O962        H981   0.991       .  S
O962        H985   0.990       .  S
O963        H977   0.990       .  S
O963        H984   0.990       .  S
O964        C968   1.293   1_565  A
O965        C968   1.283       .  A
O966        H976   0.990       .  S
O967        H980   0.991   1_545  S
C968       C3049   1.495       .  S
Zr991       O992   2.440       .  S
Zr991       O993   2.469       .  S
Zr991       O994   2.472       .  S
Zr991       O997   2.412       .  S
Zr991       O999   2.380       .  S
Zr991      O1000   2.387       .  S
Zr991      O1001   2.410   1_545  S
Zr991      O1002   2.426       .  S
O992       H1048   0.990       .  S
O992       H1056   0.990       .  S
O993       C1013   1.290       .  A
O994       C1015   1.292       .  A
O995      Zr1005   2.441       .  S
O995       C1014   1.286       .  A
O996      Zr1004   2.444       .  S
O996       C1015   1.287   1_565  A
O997       C1014   1.280       .  A
O998      Zr1006   2.404       .  S
O998       C1013   1.279       .  A
O999      Zr1004   2.400   1_545  S
O999      Zr1006   2.394       .  S
O1000     Zr1005   2.396       .  S
O1000     Zr1006   2.366       .  S
O1000      H1035   0.966       .  S
O1001     Zr1004   2.404       .  S
O1001     Zr1021   2.374       .  S
O1001      H1038   0.962       .  S
O1002     Zr1005   2.397       .  S
O1002     Zr1021   2.404   1_545  S
Zr1003     O1028   2.436       .  S
Zr1003     O1022   2.430       .  S
Zr1003     O1030   2.433       .  S
Zr1003     O1018   2.435       .  S
Zr1003     O1009   2.401       .  S
Zr1003     O1010   2.398       .  S
Zr1003     O1011   2.374       .  S
Zr1003     O1012   2.386       .  S
Zr1004     O1023   2.436       .  S
Zr1004     O1016   2.434       .  S
Zr1004     O1017   2.426       .  S
Zr1004     O1010   2.400       .  S
Zr1004     O1011   2.384       .  S
Zr1005     O1007   2.435       .  S
Zr1005     O1029   2.436       .  S
Zr1005     O1031   2.464   1_545  S
Zr1005     O1009   2.390   1_545  S
Zr1005     O1012   2.390   1_545  S
Zr1006     O1032   2.438       .  S
Zr1006     O1033   2.437       .  S
Zr1006     O1008   2.435       .  S
Zr1006     O1009   2.397   1_545  S
Zr1006     O1010   2.380   1_545  S
O1007      H1044   0.990       .  S
O1008      H1039   0.990       .  S
O1008      H1053   0.990       .  S
O1010      H1036   0.965       .  S
O1011     Zr1021   2.371       .  S
O1012     Zr1021   2.357       .  S
O1012      H1037   0.966       .  S
C1013      C3025   1.499       .  S
C1014      C3112   1.468       .  S
C1015      C3052   1.493       .  S
O1016      H1052   0.990       .  S
O1017      C1019   1.286       .  A
O1018      C1019   1.286       .  A
C1019      C3124   1.483       .  S
O1020     Zr1021   2.440       .  S
O1020      H1049   0.990       .  S
Zr1021     O1024   2.437       .  S
Zr1021     O1025   2.441       .  S
Zr1021     O1026   2.438       .  S
O1022      C1027   1.285       .  A
O1023      H1040   0.989       .  S
O1023      H1055   0.990       .  S
O1024      H1041   0.990       .  S
O1025      H1045   0.990       .  S
O1025      H1054   0.990       .  S
O1026      C1027   1.286       .  A
C1027      C3013   1.487       .  S
O1028      H1047   0.990       .  S
O1028      H1051   0.990       .  S
O1029      H1043   0.990       .  S
O1029      H1050   0.990       .  S
O1030      C1034   1.286       .  A
O1031      C1034   1.292       .  A
O1032      H1042   0.991       .  S
O1033      H1046   0.990   1_545  S
C1034      C3040   1.504       .  S
Zr1057     O1058   2.438       .  S
Zr1057     O1059   2.421       .  S
Zr1057     O1060   2.446       .  S
Zr1057     O1063   2.443       .  S
Zr1057     O1065   2.380       .  S
Zr1057     O1066   2.382       .  S
Zr1057     O1067   2.399   1_655  S
Zr1057     O1068   2.396       .  S
O1058      H1114   0.990       .  S
O1058      H1122   0.990       .  S
O1059      C1079   1.282       .  A
O1060      C1081   1.287       .  A
O1061     Zr1071   2.411       .  S
O1061      C1080   1.281       .  A
O1062     Zr1070   2.448       .  S
O1062      C1081   1.288   1_455  A
O1063      C1080   1.286       .  A
O1064     Zr1072   2.431       .  S
O1064      C1079   1.284       .  A
O1065     Zr1070   2.391   1_655  S
O1065     Zr1072   2.359       .  S
O1066     Zr1071   2.393       .  S
O1066     Zr1072   2.383       .  S
O1066      H1101   0.964       .  S
O1067     Zr1070   2.404       .  S
O1067     Zr1087   2.389       .  S
O1067      H1104   0.966       .  S
O1068     Zr1071   2.392       .  S
O1068     Zr1087   2.384   1_655  S
Zr1069     O1094   2.443       .  S
Zr1069     O1088   2.472       .  S
Zr1069     O1096   2.470       .  S
Zr1069     O1084   2.430       .  S
Zr1069     O1075   2.387   1_455  S
Zr1069     O1076   2.427       .  S
Zr1069     O1077   2.385       .  S
Zr1069     O1078   2.385       .  S
Zr1070     O1089   2.435       .  S
Zr1070     O1082   2.431       .  S
Zr1070     O1083   2.454       .  S
Zr1070     O1076   2.401       .  S
Zr1070     O1077   2.394       .  S
Zr1071     O1073   2.436       .  S
Zr1071     O1095   2.442       .  S
Zr1071     O1097   2.432       .  S
Zr1071     O1075   2.368       .  S
Zr1071     O1078   2.395   1_655  S
Zr1072     O1098   2.434       .  S
Zr1072     O1099   2.435       .  S
Zr1072     O1074   2.437       .  S
Zr1072     O1075   2.378       .  S
Zr1072     O1076   2.412   1_655  S
O1073      H1110   0.990       .  S
O1074      H1105   0.990       .  S
O1074      H1119   0.990       .  S
O1076      H1102   0.966       .  S
O1077     Zr1087   2.373       .  S
O1078     Zr1087   2.401       .  S
O1078      H1103   0.966       .  S
C1079      C3160   1.490       .  S
C1080      C3076   1.490       .  S
C1081      C3532   1.502       .  S
O1082      H1118   0.990       .  S
O1083      C1085   1.289       .  A
O1084      C1085   1.282       .  A
C1085      C3061   1.492       .  S
O1086     Zr1087   2.435       .  S
O1086      H1115   0.990   1_455  S
Zr1087     O1090   2.434       .  S
Zr1087     O1091   2.440       .  S
Zr1087     O1092   2.385       .  S
O1088      C1093   1.290       .  A
O1089      H1106   0.990       .  S
O1089      H1121   0.990       .  S
O1090      H1107   0.990       .  S
O1091      H1111   0.990       .  S
O1091      H1120   0.990       .  S
O1092      C1093   1.275       .  A
C1093      C3148   1.481       .  S
O1094      H1113   0.991       .  S
O1094      H1117   0.990       .  S
O1095      H1109   0.990       .  S
O1095      H1116   0.990       .  S
O1096      C1100   1.291       .  A
O1097      C1100   1.284   1_655  A
O1098      H1108   0.990       .  S
O1099      H1112   0.991   1_655  S
C1100      C3001   1.498       .  S
Zr1123     O1124   2.445       .  S
Zr1123     O1125   2.474       .  S
Zr1123     O1126   2.479       .  S
Zr1123     O1129   2.435       .  S
Zr1123     O1131   2.380       .  S
Zr1123     O1132   2.393       .  S
Zr1123     O1133   2.418   1_655  S
Zr1123     O1134   2.428       .  S
O1124      H1180   0.990       .  S
O1124      H1188   0.991       .  S
O1125      C1145   1.291       .  A
O1126      C1147   1.292       .  A
O1127     Zr1137   2.450       .  S
O1127      C1146   1.289       .  A
O1128     Zr1136   2.429       .  S
O1128      C1147   1.282   1_455  A
O1129      C1146   1.285       .  A
O1130     Zr1138   2.385       .  S
O1130      C1145   1.274       .  A
O1131     Zr1136   2.401   1_655  S
O1131     Zr1138   2.395       .  S
O1132     Zr1137   2.398       .  S
O1132     Zr1138   2.380       .  S
O1132      H1167   0.966       .  S
O1133     Zr1136   2.402       .  S
O1133     Zr1153   2.385       .  S
O1133      H1170   0.964       .  S
O1134     Zr1137   2.402       .  S
O1134     Zr1153   2.403   1_655  S
Zr1135     O1160   2.434       .  S
Zr1135     O1154   2.413       .  S
Zr1135     O1162   2.422       .  S
Zr1135     O1150   2.430       .  S
Zr1135     O1141   2.394   1_455  S
Zr1135     O1142   2.393       .  S
Zr1135     O1143   2.376       .  S
Zr1135     O1144   2.383       .  S
Zr1136     O1155   2.440       .  S
Zr1136     O1148   2.433       .  S
Zr1136     O1149   2.432       .  S
Zr1136     O1142   2.390       .  S
Zr1136     O1143   2.379       .  S
Zr1137     O1139   2.430       .  S
Zr1137     O1161   2.434       .  S
Zr1137     O1163   2.471       .  S
Zr1137     O1141   2.387       .  S
Zr1137     O1144   2.386   1_655  S
Zr1138     O1164   2.438       .  S
Zr1138     O1165   2.438       .  S
Zr1138     O1140   2.436       .  S
Zr1138     O1141   2.395       .  S
Zr1138     O1142   2.377   1_655  S
O1139      H1176   0.990       .  S
O1140      H1171   0.989       .  S
O1140      H1185   0.990       .  S
O1142      H1168   0.965       .  S
O1143     Zr1153   2.368       .  S
O1144     Zr1153   2.359       .  S
O1144      H1169   0.965       .  S
C1145      C3088   1.496       .  S
C1146      C3028   1.493       .  S
C1147      C3004   1.498       .  S
O1148      H1184   0.990       .  S
O1149      C1151   1.287       .  A
O1150      C1151   1.285       .  A
C1151      C3016   1.487       .  S
O1152     Zr1153   2.438       .  S
O1152      H1181   0.990       .  S
Zr1153     O1156   2.438       .  S
Zr1153     O1157   2.440       .  S
Zr1153     O1158   2.440       .  S
O1154      C1159   1.281       .  A
O1155      H1172   0.990       .  S
O1155      H1187   0.990       .  S
O1156      H1173   0.990       .  S
O1157      H1177   0.990       .  S
O1157      H1186   0.990   1_455  S
O1158      C1159   1.287       .  A
C1159      C3097   1.482       .  S
O1160      H1179   0.990       .  S
O1160      H1183   0.990       .  S
O1161      H1175   0.990       .  S
O1161      H1182   0.990       .  S
O1162      C1166   1.284       .  A
O1163      C1166   1.292   1_655  A
O1164      H1174   0.991       .  S
O1165      H1178   0.990       .  S
C1166      C2989   1.503       .  S
Zr1189     O1190   2.438       .  S
Zr1189     O1191   2.412       .  S
Zr1189     O1192   2.437       .  S
Zr1189     O1195   2.436       .  S
Zr1189     O1197   2.382       .  S
Zr1189     O1198   2.387       .  S
Zr1189     O1199   2.396       .  S
Zr1189     O1200   2.390       .  S
O1190      H1246   0.990       .  S
O1190      H1254   0.990       .  S
O1191      C1211   1.280       .  A
O1192      C1213   1.287       .  A
O1193     Zr1203   2.423       .  S
O1193      C1212   1.283       .  A
O1194     Zr1202   2.434       .  S
O1194      C1213   1.285       .  A
O1195      C1212   1.285       .  A
O1196     Zr1204   2.429       .  S
O1196      C1211   1.284       .  A
O1197     Zr1202   2.394       .  S
O1197     Zr1204   2.366       .  S
O1198     Zr1203   2.385       .  S
O1198     Zr1204   2.380       .  S
O1198      H1233   0.966       .  S
O1199     Zr1202   2.399       .  S
O1199     Zr1219   2.392       .  S
O1199      H1236   0.967       .  S
O1200     Zr1203   2.391       .  S
O1200     Zr1219   2.376       .  S
Zr1201     O1226   2.443       .  S
Zr1201     O1220   2.464       .  S
Zr1201     O1228   2.476       .  S
Zr1201     O1216   2.429       .  S
Zr1201     O1207   2.384       .  S
Zr1201     O1208   2.424       .  S
Zr1201     O1209   2.381       .  S
Zr1201     O1210   2.388       .  S
Zr1202     O1221   2.434       .  S
Zr1202     O1214   2.434       .  S
Zr1202     O1215   2.434       .  S
Zr1202     O1208   2.400       .  S
Zr1202     O1209   2.382       .  S
Zr1203     O1205   2.436       .  S
Zr1203     O1227   2.438       .  S
Zr1203     O1229   2.432       .  S
Zr1203     O1207   2.379       .  S
Zr1203     O1210   2.393       .  S
Zr1204     O1230   2.439       .  S
Zr1204     O1231   2.435       .  S
Zr1204     O1206   2.438       .  S
Zr1204     O1207   2.379       .  S
Zr1204     O1208   2.415       .  S
O1205      H1242   0.990       .  S
O1206      H1237   0.990       .  S
O1206      H1251   0.990       .  S
O1208      H1234   0.966       .  S
O1209     Zr1219   2.380       .  S
O1210     Zr1219   2.404       .  S
O1210      H1235   0.966       .  S
C1211      C2941   1.479       .  S
C1212      C2917   1.481   1_455  S
C1213      C2980   1.490       .  S
O1214      H1250   0.990       .  S
O1215      C1217   1.285       .  A
O1216      C1217   1.282       .  A
C1217      C2932   1.488       .  S
O1218     Zr1219   2.443       .  S
O1218      H1247   0.990       .  S
Zr1219     O1222   2.441       .  S
Zr1219     O1223   2.436       .  S
Zr1219     O1224   2.388       .  S
O1220      C1225   1.290       .  A
O1221      H1238   0.990       .  S
O1221      H1253   0.990       .  S
O1222      H1239   0.990       .  S
O1223      H1243   0.989       .  S
O1223      H1252   0.989       .  S
O1224      C1225   1.276       .  A
C1225      C2953   1.482       .  S
O1226      H1245   0.991       .  S
O1226      H1249   0.990       .  S
O1227      H1241   0.990       .  S
O1227      H1248   0.990       .  S
O1228      C1232   1.291       .  A
O1229      C1232   1.284       .  A
O1230      H1240   0.990       .  S
O1231      H1244   0.990       .  S
C1232      C2968   1.501       .  S
Zr1255     O1256   2.441       .  S
Zr1255     O1257   2.464       .  S
Zr1255     O1258   2.473       .  S
Zr1255     O1261   2.424       .  S
Zr1255     O1263   2.381       .  S
Zr1255     O1264   2.390       .  S
Zr1255     O1265   2.409       .  S
Zr1255     O1266   2.421       .  S
O1256      H1312   0.990       .  S
O1256      H1320   0.991       .  S
O1257      C1277   1.289       .  A
O1258      C1279   1.291       .  A
O1259     Zr1269   2.436   1_655  S
O1259      C1278   1.287       .  A
O1260     Zr1268   2.440       .  S
O1260      C1279   1.285       .  A
O1261      C1278   1.282   1_455  A
O1262     Zr1270   2.389       .  S
O1262      C1277   1.276       .  A
O1263     Zr1268   2.399       .  S
O1263     Zr1270   2.398       .  S
O1264     Zr1269   2.394       .  S
O1264     Zr1270   2.373       .  S
O1264      H1299   0.966       .  S
O1265     Zr1268   2.398       .  S
O1265     Zr1285   2.370       .  S
O1265      H1302   0.962       .  S
O1266     Zr1269   2.400       .  S
O1266     Zr1285   2.404       .  S
Zr1267     O1292   2.443       .  S
Zr1267     O1286   2.408       .  S
Zr1267     O1294   2.439       .  S
Zr1267     O1282   2.456       .  S
Zr1267     O1273   2.399       .  S
Zr1267     O1274   2.394       .  S
Zr1267     O1275   2.384       .  S
Zr1267     O1276   2.388       .  S
Zr1268     O1287   2.436       .  S
Zr1268     O1280   2.434       .  S
Zr1268     O1281   2.418       .  S
Zr1268     O1274   2.401       .  S
Zr1268     O1275   2.391       .  S
Zr1269     O1271   2.436   1_455  S
Zr1269     O1293   2.436       .  S
Zr1269     O1295   2.450       .  S
Zr1269     O1273   2.396       .  S
Zr1269     O1276   2.389       .  S
Zr1270     O1296   2.438       .  S
Zr1270     O1297   2.437       .  S
Zr1270     O1272   2.435       .  S
Zr1270     O1273   2.394       .  S
Zr1270     O1274   2.368       .  S
O1271      H1308   0.990       .  S
O1272      H1303   0.990       .  S
O1272      H1317   0.990       .  S
O1274      H1300   0.966       .  S
O1275     Zr1285   2.380       .  S
O1276     Zr1285   2.356       .  S
O1276      H1301   0.965       .  S
C1277      C2896   1.485       .  S
C1278      C2872   1.482       .  S
C1279      C2965   1.501       .  S
O1280      H1316   0.990       .  S
O1281      C1283   1.284       .  A
O1282      C1283   1.289       .  A
C1283      C2881   1.493       .  S
O1284     Zr1285   2.440       .  S
O1284      H1313   0.991       .  S
Zr1285     O1288   2.439       .  S
Zr1285     O1289   2.440       .  S
Zr1285     O1290   2.426       .  S
O1286      C1291   1.280       .  A
O1287      H1304   0.990       .  S
O1287      H1319   0.990       .  S
O1288      H1305   0.990       .  S
O1289      H1309   0.990       .  S
O1289      H1318   0.990   1_455  S
O1290      C1291   1.283       .  A
C1291      C2908   1.482       .  S
O1292      H1311   0.990       .  S
O1292      H1315   0.990       .  S
O1293      H1307   0.990       .  S
O1293      H1314   0.990       .  S
O1294      C1298   1.288       .  A
O1295      C1298   1.288       .  A
O1296      H1306   0.990       .  S
O1297      H1310   0.990       .  S
C1298      C2992   1.504       .  S
Zr1321     O1322   2.438       .  S
Zr1321     O1323   2.412       .  S
Zr1321     O1324   2.435       .  S
Zr1321     O1327   2.434       .  S
Zr1321     O1329   2.378       .  S
Zr1321     O1330   2.386       .  S
Zr1321     O1331   2.400       .  S
Zr1321     O1332   2.387       .  S
O1322      H1378   0.990       .  S
O1322      H1386   0.990       .  S
O1323      C1343   1.282   1_455  A
O1324      C1345   1.286       .  A
O1325     Zr1335   2.413       .  S
O1325      C1344   1.280       .  A
O1326     Zr1334   2.450       .  S
O1326      C1345   1.289       .  A
O1327      C1344   1.286       .  A
O1328     Zr1336   2.439   1_655  S
O1328      C1343   1.286       .  A
O1329     Zr1334   2.385       .  S
O1329     Zr1336   2.356       .  S
O1330     Zr1335   2.388       .  S
O1330     Zr1336   2.384       .  S
O1330      H1365   0.965       .  S
O1331     Zr1334   2.397       .  S
O1331     Zr1351   2.399       .  S
O1331      H1368   0.966       .  S
O1332     Zr1335   2.383       .  S
O1332     Zr1351   2.376       .  S
Zr1333     O1358   2.441       .  S
Zr1333     O1352   2.468       .  S
Zr1333     O1360   2.473       .  S
Zr1333     O1348   2.421       .  S
Zr1333     O1339   2.385       .  S
Zr1333     O1340   2.430       .  S
Zr1333     O1341   2.388       .  S
Zr1333     O1342   2.383       .  S
Zr1334     O1353   2.436       .  S
Zr1334     O1346   2.434       .  S
Zr1334     O1347   2.438       .  S
Zr1334     O1340   2.406       .  S
Zr1334     O1341   2.394       .  S
Zr1335     O1337   2.436       .  S
Zr1335     O1359   2.439       .  S
Zr1335     O1361   2.420       .  S
Zr1335     O1339   2.374       .  S
Zr1335     O1342   2.393       .  S
Zr1336     O1362   2.435       .  S
Zr1336     O1363   2.436       .  S
Zr1336     O1338   2.437   1_455  S
Zr1336     O1339   2.382       .  S
Zr1336     O1340   2.409       .  S
O1337      H1374   0.990       .  S
O1338      H1369   0.990       .  S
O1338      H1383   0.990       .  S
O1340      H1366   0.966       .  S
O1341     Zr1351   2.379       .  S
O1342     Zr1351   2.398       .  S
O1342      H1367   0.965       .  S
C1343      C2833   1.486       .  S
C1344      C2944   1.475   1_565  S
C1345      C2857   1.503       .  S
O1346      H1382   0.990       .  S
O1347      C1349   1.286       .  A
O1348      C1349   1.280       .  A
C1349      C2956   1.476       .  S
O1350     Zr1351   2.439       .  S
O1350      H1379   0.990       .  S
Zr1351     O1354   2.438       .  S
Zr1351     O1355   2.439       .  S
Zr1351     O1356   2.393       .  S
O1352      C1357   1.288       .  A
O1353      H1370   0.990       .  S
O1353      H1385   0.990       .  S
O1354      H1371   0.990       .  S
O1355      H1375   0.990       .  S
O1355      H1384   0.990       .  S
O1356      C1357   1.276       .  A
C1357      C2821   1.481       .  S
O1358      H1377   0.990       .  S
O1358      H1381   0.990       .  S
O1359      H1373   0.990       .  S
O1359      H1380   0.990       .  S
O1360      C1364   1.291       .  A
O1361      C1364   1.282       .  A
O1362      H1372   0.990       .  S
O1363      H1376   0.990       .  S
C1364      C2845   1.496       .  S
Zr1387     O1388   2.442       .  S
Zr1387     O1389   2.462       .  S
Zr1387     O1390   2.464       .  S
Zr1387     O1393   2.416       .  S
Zr1387     O1395   2.375       .  S
Zr1387     O1396   2.386       .  S
Zr1387     O1397   2.408       .  S
Zr1387     O1398   2.427       .  S
O1388      H1444   0.990       .  S
O1388      H1452   0.990       .  S
O1389      C1409   1.288       .  A
O1390      C1411   1.290       .  A
O1391     Zr1401   2.455       .  S
O1391      C1410   1.289       .  A
O1392     Zr1400   2.440       .  S
O1392      C1411   1.284       .  A
O1393      C1410   1.280       .  A
O1394     Zr1402   2.386       .  S
O1394      C1409   1.276       .  A
O1395     Zr1400   2.392       .  S
O1395     Zr1402   2.396       .  S
O1396     Zr1401   2.394       .  S
O1396     Zr1402   2.375       .  S
O1396      H1431   0.966       .  S
O1397     Zr1400   2.394       .  S
O1397     Zr1417   2.374       .  S
O1397      H1434   0.963       .  S
O1398     Zr1401   2.397       .  S
O1398     Zr1417   2.412       .  S
Zr1399     O1424   2.442       .  S
Zr1399     O1418   2.420       .  S
Zr1399     O1426   2.440       .  S
Zr1399     O1414   2.438       .  S
Zr1399     O1405   2.396       .  S
Zr1399     O1406   2.398       .  S
Zr1399     O1407   2.378       .  S
Zr1399     O1408   2.386       .  S
Zr1400     O1419   2.438       .  S
Zr1400     O1412   2.435       .  S
Zr1400     O1413   2.411       .  S
Zr1400     O1406   2.402       .  S
Zr1400     O1407   2.388       .  S
Zr1401     O1403   2.435       .  S
Zr1401     O1425   2.435       .  S
Zr1401     O1427   2.459       .  S
Zr1401     O1405   2.397       .  S
Zr1401     O1408   2.394       .  S
Zr1402     O1428   2.435       .  S
Zr1402     O1429   2.437       .  S
Zr1402     O1404   2.439       .  S
Zr1402     O1405   2.390       .  S
Zr1402     O1406   2.370       .  S
O1403      H1440   0.990   1_565  S
O1404      H1435   0.990   1_455  S
O1404      H1449   0.990   1_455  S
O1406      H1432   0.966       .  S
O1407     Zr1417   2.366       .  S
O1408     Zr1417   2.357       .  S
O1408      H1433   0.966       .  S
C1409      C2797   1.486   1_455  S
C1410      C2893   1.485   1_565  S
C1411      C2848   1.499       .  S
O1412      H1448   0.990       .  S
O1413      C1415   1.283       .  A
O1414      C1415   1.286       .  A
C1415      C2905   1.476       .  S
O1416     Zr1417   2.439       .  S
O1416      H1445   0.990       .  S
Zr1417     O1420   2.438       .  S
Zr1417     O1421   2.439       .  S
Zr1417     O1422   2.441       .  S
O1418      C1423   1.281       .  A
O1419      H1436   0.990       .  S
O1419      H1451   0.990       .  S
O1420      H1437   0.990       .  S
O1421      H1441   0.990       .  S
O1421      H1450   0.990       .  S
O1422      C1423   1.287       .  A
C1423      C2809   1.488       .  S
O1424      H1443   0.990       .  S
O1424      H1447   0.990       .  S
O1425      H1439   0.990       .  S
O1425      H1446   0.990       .  S
O1426      C1430   1.289       .  A
O1427      C1430   1.290       .  A
O1428      H1438   0.990       .  S
O1429      H1442   0.990       .  S
C1430      C3037   1.507       .  S
Zr1453     O1454   2.438       .  S
Zr1453     O1455   2.411       .  S
Zr1453     O1456   2.434       .  S
Zr1453     O1459   2.423       .  S
Zr1453     O1461   2.378       .  S
Zr1453     O1462   2.387       .  S
Zr1453     O1463   2.395       .  S
Zr1453     O1464   2.395       .  S
O1454      H1510   0.990       .  S
O1454      H1518   0.990       .  S
O1455      C1475   1.279       .  A
O1456      C1477   1.286       .  A
O1457     Zr1467   2.427       .  S
O1457      C1476   1.284       .  A
O1458     Zr1466   2.452       .  S
O1458      C1477   1.288       .  A
O1459      C1476   1.283       .  A
O1460     Zr1468   2.444       .  S
O1460      C1475   1.287       .  A
O1461     Zr1466   2.393       .  S
O1461     Zr1468   2.364       .  S
O1462     Zr1467   2.386       .  S
O1462     Zr1468   2.379       .  S
O1462      H1497   0.966       .  S
O1463     Zr1466   2.400       .  S
O1463     Zr1483   2.396       .  S
O1463      H1500   0.965       .  S
O1464     Zr1467   2.385       .  S
O1464     Zr1483   2.380       .  S
Zr1465     O1490   2.442       .  S
Zr1465     O1484   2.476       .  S
Zr1465     O1492   2.475       .  S
Zr1465     O1480   2.429       .  S
Zr1465     O1471   2.387       .  S
Zr1465     O1472   2.431       .  S
Zr1465     O1473   2.382       .  S
Zr1465     O1474   2.387       .  S
Zr1466     O1485   2.437       .  S
Zr1466     O1478   2.434       .  S
Zr1466     O1479   2.447       .  S
Zr1466     O1472   2.406       .  S
Zr1466     O1473   2.390       .  S
Zr1467     O1469   2.435       .  S
Zr1467     O1491   2.441       .  S
Zr1467     O1493   2.427       .  S
Zr1467     O1471   2.376       .  S
Zr1467     O1474   2.396       .  S
Zr1468     O1494   2.436       .  S
Zr1468     O1495   2.436       .  S
Zr1468     O1470   2.436   1_565  S
Zr1468     O1471   2.379       .  S
Zr1468     O1472   2.419       .  S
O1469      H1506   0.990       .  S
O1470      H1501   0.990       .  S
O1470      H1515   0.990       .  S
O1472      H1498   0.966       .  S
O1473     Zr1483   2.377       .  S
O1474     Zr1483   2.400       .  S
O1474      H1499   0.965       .  S
C1475      C2920   1.474   1_565  S
C1476      C2836   1.476       .  S
C1477      C2773   1.498       .  S
O1478      H1514   0.990       .  S
O1479      C1481   1.288       .  A
O1480      C1481   1.281       .  A
C1481      C2824   1.486       .  S
O1482     Zr1483   2.435       .  S
O1482      H1511   0.990       .  S
Zr1483     O1486   2.436       .  S
Zr1483     O1487   2.440       .  S
Zr1483     O1488   2.393       .  S
O1484      C1489   1.291       .  A
O1485      H1502   0.990       .  S
O1485      H1517   0.990       .  S
O1486      H1503   0.990       .  S
O1487      H1507   0.990       .  S
O1487      H1516   0.989       .  S
O1488      C1489   1.277       .  A
C1489      C2929   1.487       .  S
O1490      H1509   0.990       .  S
O1490      H1513   0.991       .  S
O1491      H1505   0.990       .  S
O1491      H1512   0.990       .  S
O1492      C1496   1.293       .  A
O1493      C1496   1.283       .  A
O1494      H1504   0.990       .  S
O1495      H1508   0.991       .  S
C1496      C2785   1.495       .  S
Zr1519     O1520   2.443       .  S
Zr1519     O1521   2.464       .  S
Zr1519     O1522   2.460       .  S
Zr1519     O1525   2.409       .  S
Zr1519     O1527   2.376       .  S
Zr1519     O1528   2.389       .  S
Zr1519     O1529   2.408       .  S
Zr1519     O1530   2.421       .  S
O1520      H1576   0.990       .  S
O1520      H1584   0.991       .  S
O1521      C1541   1.288       .  A
O1522      C1543   1.288       .  A
O1523     Zr1533   2.448       .  S
O1523      C1542   1.288       .  A
O1524     Zr1532   2.418       .  S
O1524      C1543   1.280       .  A
O1525      C1542   1.279       .  A
O1526     Zr1534   2.398       .  S
O1526      C1541   1.278       .  A
O1527     Zr1532   2.396       .  S
O1527     Zr1534   2.394       .  S
O1528     Zr1533   2.387       .  S
O1528     Zr1534   2.377       .  S
O1528      H1563   0.967       .  S
O1529     Zr1532   2.393       .  S
O1529     Zr1549   2.379       .  S
O1529      H1566   0.963       .  S
O1530     Zr1533   2.396       .  S
O1530     Zr1549   2.403       .  S
Zr1531     O1556   2.441       .  S
Zr1531     O1550   2.412       .  S
Zr1531     O1558   2.435       .  S
Zr1531     O1546   2.453       .  S
Zr1531     O1537   2.402       .  S
Zr1531     O1538   2.398       .  S
Zr1531     O1539   2.376       .  S
Zr1531     O1540   2.389       .  S
Zr1532     O1551   2.437       .  S
Zr1532     O1544   2.434       .  S
Zr1532     O1545   2.414       .  S
Zr1532     O1538   2.396       .  S
Zr1532     O1539   2.385       .  S
Zr1533     O1535   2.425       .  S
Zr1533     O1557   2.438       .  S
Zr1533     O1559   2.447       .  S
Zr1533     O1537   2.395       .  S
Zr1533     O1540   2.392       .  S
Zr1534     O1560   2.436       .  S
Zr1534     O1561   2.438       .  S
Zr1534     O1536   2.438       .  S
Zr1534     O1537   2.395       .  S
Zr1534     O1538   2.382       .  S
O1535      H1572   0.990       .  S
O1536      H1567   0.990       .  S
O1536      H1581   0.990       .  S
O1538      H1564   0.965       .  S
O1539     Zr1549   2.375       .  S
O1540     Zr1549   2.353       .  S
O1540      H1565   0.964       .  S
C1541      C2869   1.478   1_565  S
C1542      C2800   1.482       .  S
C1543      C2788   1.492       .  S
O1544      H1580   0.990       .  S
O1545      C1547   1.282       .  A
O1546      C1547   1.290       .  A
C1547      C2812   1.492       .  S
O1548     Zr1549   2.439       .  S
O1548      H1577   0.990       .  S
Zr1549     O1552   2.437       .  S
Zr1549     O1553   2.439       .  S
Zr1549     O1554   2.437       .  S
O1550      C1555   1.282       .  A
O1551      H1568   0.990       .  S
O1551      H1583   0.990       .  S
O1552      H1569   0.990       .  S
O1553      H1573   0.990       .  S
O1553      H1582   0.990       .  S
O1554      C1555   1.284       .  A
C1555      C2884   1.495       .  S
O1556      H1575   0.990       .  S
O1556      H1579   0.990       .  S
O1557      H1571   0.990       .  S
O1557      H1578   0.990       .  S
O1558      C1562   1.287       .  A
O1559      C1562   1.287       .  A
O1560      H1570   0.990       .  S
O1561      H1574   0.990       .  S
C1562      C3136   1.490       .  S
Zr1585     O1586   2.440       .  S
Zr1585     O1587   2.428       .  S
Zr1585     O1588   2.438       .  S
Zr1585     O1591   2.426       .  S
Zr1585     O1593   2.374       .  S
Zr1585     O1594   2.383       .  S
Zr1585     O1595   2.399       .  S
Zr1585     O1596   2.397       .  S
O1586      H1642   0.990       .  S
O1586      H1650   0.990       .  S
O1587      C1607   1.282   1_655  A
O1588      C1609   1.286       .  A
O1589     Zr1599   2.425       .  S
O1589      C1608   1.284       .  A
O1590     Zr1598   2.449       .  S
O1590      C1609   1.287       .  A
O1591      C1608   1.284       .  A
O1592     Zr1600   2.432       .  S
O1592      C1607   1.285   1_655  A
O1593     Zr1598   2.385       .  S
O1593     Zr1600   2.363       .  S
O1594     Zr1599   2.395       .  S
O1594     Zr1600   2.383       .  S
O1594      H1629   0.965       .  S
O1595     Zr1598   2.399       .  S
O1595     Zr1615   2.399       .  S
O1595      H1632   0.965       .  S
O1596     Zr1599   2.389       .  S
O1596     Zr1615   2.379       .  S
Zr1597     O1622   2.442       .  S
Zr1597     O1616   2.470       .  S
Zr1597     O1624   2.481       .  S
Zr1597     O1612   2.431       .  S
Zr1597     O1603   2.381       .  S
Zr1597     O1604   2.426       .  S
Zr1597     O1605   2.387       .  S
Zr1597     O1606   2.384       .  S
Zr1598     O1617   2.435       .  S
Zr1598     O1610   2.435       .  S
Zr1598     O1611   2.431       .  S
Zr1598     O1604   2.403       .  S
Zr1598     O1605   2.393       .  S
Zr1599     O1601   2.437       .  S
Zr1599     O1623   2.439       .  S
Zr1599     O1625   2.438       .  S
Zr1599     O1603   2.369       .  S
Zr1599     O1606   2.396       .  S
Zr1600     O1626   2.436       .  S
Zr1600     O1627   2.435       .  S
Zr1600     O1602   2.436   1_655  S
Zr1600     O1603   2.376       .  S
Zr1600     O1604   2.412       .  S
O1601      H1638   0.990       .  S
O1602      H1633   0.990       .  S
O1602      H1647   0.990       .  S
O1604      H1630   0.966       .  S
O1605     Zr1615   2.376       .  S
O1606     Zr1615   2.398       .  S
O1606      H1631   0.966       .  S
C1607      C2713   1.494       .  S
C1608      C2737   1.478       .  S
C1609      C2860   1.503       .  S
O1610      H1646   0.990       .  S
O1611      C1613   1.286       .  A
O1612      C1613   1.282       .  A
C1613      C2752   1.492       .  S
O1614     Zr1615   2.439       .  S
O1614      H1643   0.991       .  S
Zr1615     O1618   2.435       .  S
Zr1615     O1619   2.442       .  S
Zr1615     O1620   2.389       .  S
O1616      C1621   1.288       .  A
O1617      H1634   0.990       .  S
O1617      H1649   0.990       .  S
O1618      H1635   0.990       .  S
O1619      H1639   0.990       .  S
O1619      H1648   0.990       .  S
O1620      C1621   1.275       .  A
C1621      C2728   1.478       .  S
O1622      H1641   0.991       .  S
O1622      H1645   0.990       .  S
O1623      H1637   0.990       .  S
O1623      H1644   0.990       .  S
O1624      C1628   1.294       .  A
O1625      C1628   1.286       .  A
O1626      H1636   0.990       .  S
O1627      H1640   0.990       .  S
C1628      C2761   1.502       .  S
Zr1651     O1652   2.442       .  S
Zr1651     O1653   2.459       .  S
Zr1651     O1654   2.490       .  S
Zr1651     O1657   2.424       .  S
Zr1651     O1659   2.383       .  S
Zr1651     O1660   2.396       .  S
Zr1651     O1661   2.406       .  S
Zr1651     O1662   2.423       .  S
O1652      H1708   0.990       .  S
O1652      H1716   0.991       .  S
O1653      C1673   1.288       .  A
O1654      C1675   1.295       .  A
O1655     Zr1665   2.424       .  S
O1655      C1674   1.284       .  A
O1656     Zr1664   2.438       .  S
O1656      C1675   1.284       .  A
O1657      C1674   1.282       .  A
O1658     Zr1666   2.392       .  S
O1658      C1673   1.277       .  A
O1659     Zr1664   2.393       .  S
O1659     Zr1666   2.400       .  S
O1660     Zr1665   2.399       .  S
O1660     Zr1666   2.367       .  S
O1660      H1695   0.966       .  S
O1661     Zr1664   2.401       .  S
O1661     Zr1681   2.369       .  S
O1661      H1698   0.962       .  S
O1662     Zr1665   2.398       .  S
O1662     Zr1681   2.396       .  S
Zr1663     O1688   2.444       .  S
Zr1663     O1682   2.419       .  S
Zr1663     O1690   2.443       .  S
Zr1663     O1678   2.434       .  S
Zr1663     O1669   2.394       .  S
Zr1663     O1670   2.403       .  S
Zr1663     O1671   2.380       .  S
Zr1663     O1672   2.383       .  S
Zr1664     O1683   2.438       .  S
Zr1664     O1676   2.437       .  S
Zr1664     O1677   2.416       .  S
Zr1664     O1670   2.403       .  S
Zr1664     O1671   2.390       .  S
Zr1665     O1667   2.435       .  S
Zr1665     O1689   2.437       .  S
Zr1665     O1691   2.463       .  S
Zr1665     O1669   2.391       .  S
Zr1665     O1672   2.382       .  S
Zr1666     O1692   2.436       .  S
Zr1666     O1693   2.437       .  S
Zr1666     O1668   2.437       .  S
Zr1666     O1669   2.388       .  S
Zr1666     O1670   2.378       .  S
O1667      H1704   0.990       .  S
O1668      H1699   0.990   1_655  S
O1668      H1713   0.990       .  S
O1670      H1696   0.965       .  S
O1671     Zr1681   2.376       .  S
O1672     Zr1681   2.361       .  S
O1672      H1697   0.966       .  S
C1673      C2680   1.482   1_655  S
C1674      C2653   1.472       .  S
C1675      C2764   1.503       .  S
O1676      H1712   0.990       .  S
O1677      C1679   1.283       .  A
O1678      C1679   1.285       .  A
C1679      C2665   1.477       .  S
O1680     Zr1681   2.439       .  S
O1680      H1709   0.990       .  S
Zr1681     O1684   2.435       .  S
Zr1681     O1685   2.439       .  S
Zr1681     O1686   2.420       .  S
O1682      C1687   1.283       .  A
O1683      H1700   0.990       .  S
O1683      H1715   0.990       .  S
O1684      H1701   0.990       .  S
O1685      H1705   0.990       .  S
O1685      H1714   0.990       .  S
O1686      C1687   1.283       .  A
C1687      C2689   1.480       .  S
O1688      H1707   0.990       .  S
O1688      H1711   0.990       .  S
O1689      H1703   0.990       .  S
O1689      H1710   0.990       .  S
O1690      C1694   1.287       .  A
O1691      C1694   1.292       .  A
O1692      H1702   0.990       .  S
O1693      H1706   0.990       .  S
C1694      C2704   1.513       .  S
Zr1717     O1718   2.432       .  S
Zr1717     O1719   2.417       .  S
Zr1717     O1720   2.451       .  S
Zr1717     O1723   2.444       .  S
Zr1717     O1725   2.387       .  S
Zr1717     O1726   2.394       .  S
Zr1717     O1727   2.405       .  S
Zr1717     O1728   2.396       .  S
O1718      H1774   0.990       .  S
O1718      H1782   0.989       .  S
O1719      C1739   1.280       .  A
O1720      C1741   1.288       .  A
O1721     Zr1731   2.424       .  S
O1721      C1740   1.284       .  A
O1722     Zr1730   2.447       .  S
O1722      C1741   1.288       .  A
O1723      C1740   1.287       .  A
O1724     Zr1732   2.456       .  S
O1724      C1739   1.289       .  A
O1725     Zr1730   2.399       .  S
O1725     Zr1732   2.363       .  S
O1726     Zr1731   2.382       .  S
O1726     Zr1732   2.379       .  S
O1726      H1761   0.966       .  S
O1727     Zr1730   2.401       .  S
O1727     Zr1747   2.398       .  S
O1727      H1764   0.966       .  S
O1728     Zr1731   2.383       .  S
O1728     Zr1747   2.377       .  S
Zr1729     O1754   2.443       .  S
Zr1729     O1748   2.477       .  S
Zr1729     O1756   2.461       .  S
Zr1729     O1744   2.423       .  S
Zr1729     O1736   2.428       .  S
Zr1729     O1737   2.378       .  S
Zr1729     O1738   2.379       .  S
Zr1729     O1735   2.291       .  S
Zr1730     O1749   2.439       .  S
Zr1730     O1742   2.435       .  S
Zr1730     O1743   2.448       .  S
Zr1730     O1736   2.403       .  S
Zr1730     O1737   2.395       .  S
Zr1731     O1733   2.432       .  S
Zr1731     O1755   2.437       .  S
Zr1731     O1757   2.429       .  S
Zr1731     O1738   2.392       .  S
Zr1731     O1735   2.272       .  S
Zr1732     O1758   2.433       .  S
Zr1732     O1759   2.440       .  S
Zr1732     O1734   2.436       .  S
Zr1732     O1736   2.414       .  S
Zr1732     O1735   2.300       .  S
O1733      H1770   0.990       .  S
O1734      H1765   0.990       .  S
O1734      H1779   0.990       .  S
O1736      H1762   0.966       .  S
O1737     Zr1747   2.384       .  S
O1738     Zr1747   2.402       .  S
O1738      H1763   0.964       .  S
C1739      C2641   1.478       .  S
C1740      C2716   1.493   1_545  S
C1741      C2977   1.493       .  S
O1742      H1778   0.990       .  S
O1743      C1745   1.287       .  A
O1744      C1745   1.281       .  A
C1745      C2725   1.484       .  S
O1746     Zr1747   2.443       .  S
O1746      H1775   0.990       .  S
Zr1747     O1750   2.440       .  S
Zr1747     O1751   2.437       .  S
Zr1747     O1752   2.389       .  S
O1748      C1753   1.291       .  A
O1749      H1766   0.990       .  S
O1749      H1781   0.990       .  S
O1750      H1767   0.990       .  S
O1751      H1771   0.989       .  S
O1751      H1780   0.989       .  S
O1752      C1753   1.276       .  A
C1753      C2632   1.493       .  S
O1754      H1773   0.991       .  S
O1754      H1777   0.990       .  S
O1755      H1769   0.990       .  S
O1755      H1776   0.990       .  S
O1756      C1760   1.289       .  A
O1757      C1760   1.282       .  A
O1758      H1768   0.990       .  S
O1759      H1772   0.990       .  S
C1760      C2617   1.491       .  S
Zr1783     O1784   2.442       .  S
Zr1783     O1785   2.465       .  S
Zr1783     O1786   2.476       .  S
Zr1783     O1789   2.422       .  S
Zr1783     O1791   2.386       .  S
Zr1783     O1792   2.393       .  S
Zr1783     O1793   2.413       .  S
Zr1783     O1794   2.422       .  S
O1784      H1840   0.990       .  S
O1784      H1848   0.991       .  S
O1785      C1805   1.289       .  A
O1786      C1807   1.291       .  A
O1787     Zr1797   2.447   1_565  S
O1787      C1806   1.288       .  A
O1788     Zr1796   2.445       .  S
O1788      C1807   1.287       .  A
O1789      C1806   1.282   1_545  A
O1790     Zr1798   2.395       .  S
O1790      C1805   1.277       .  A
O1791     Zr1796   2.394       .  S
O1791     Zr1798   2.399       .  S
O1792     Zr1797   2.398       .  S
O1792     Zr1798   2.375       .  S
O1792      H1827   0.966       .  S
O1793     Zr1796   2.405       .  S
O1793     Zr1813   2.362       .  S
O1793      H1830   0.962       .  S
O1794     Zr1797   2.391       .  S
O1794     Zr1813   2.396       .  S
Zr1795     O1820   2.437       .  S
Zr1795     O1814   2.424       .  S
Zr1795     O1822   2.420       .  S
Zr1795     O1810   2.441       .  S
Zr1795     O1801   2.400       .  S
Zr1795     O1802   2.394       .  S
Zr1795     O1803   2.383       .  S
Zr1795     O1804   2.387       .  S
Zr1796     O1815   2.439       .  S
Zr1796     O1808   2.433       .  S
Zr1796     O1809   2.431       .  S
Zr1796     O1802   2.392       .  S
Zr1796     O1803   2.393       .  S
Zr1797     O1799   2.436   1_545  S
Zr1797     O1821   2.434       .  S
Zr1797     O1823   2.455       .  S
Zr1797     O1801   2.397       .  S
Zr1797     O1804   2.384       .  S
Zr1798     O1824   2.438       .  S
Zr1798     O1825   2.437       .  S
Zr1798     O1800   2.435       .  S
Zr1798     O1801   2.389       .  S
Zr1798     O1802   2.379       .  S
O1799      H1836   0.990       .  S
O1800      H1831   0.990       .  S
O1800      H1845   0.989       .  S
O1802      H1828   0.965       .  S
O1803     Zr1813   2.379       .  S
O1804     Zr1813   2.351       .  S
O1804      H1829   0.966       .  S
C1805      C2584   1.481       .  S
C1806      C2677   1.484       .  S
C1807      C2620   1.497       .  S
O1808      H1844   0.990       .  S
O1809      C1811   1.285       .  A
O1810      C1811   1.286       .  A
C1811      C2692   1.491       .  S
O1812     Zr1813   2.438       .  S
O1812      H1841   0.990       .  S
Zr1813     O1816   2.438       .  S
Zr1813     O1817   2.441       .  S
Zr1813     O1818   2.418       .  S
O1814      C1819   1.284       .  A
O1815      H1832   0.990       .  S
O1815      H1847   0.989       .  S
O1816      H1833   0.990       .  S
O1817      H1837   0.990       .  S
O1817      H1846   0.990   1_545  S
O1818      C1819   1.281       .  A
C1819      C2596   1.490       .  S
O1820      H1839   0.990       .  S
O1820      H1843   0.990       .  S
O1821      H1835   0.990       .  S
O1821      H1842   0.990       .  S
O1822      C1826   1.283       .  A
O1823      C1826   1.291       .  A
O1824      H1834   0.990       .  S
O1825      H1838   0.990       .  S
C1826      C2605   1.498       .  S
Zr1849     O1850   2.431       .  S
Zr1849     O1851   2.411       .  S
Zr1849     O1852   2.443       .  S
Zr1849     O1855   2.423       .  S
Zr1849     O1857   2.382       .  S
Zr1849     O1858   2.390       .  S
Zr1849     O1859   2.402       .  S
Zr1849     O1860   2.398       .  S
O1850      H1906   0.990       .  S
O1850      H1914   0.989       .  S
O1851      C1871   1.280   1_545  A
O1852      C1873   1.287       .  A
O1853     Zr1863   2.435       .  S
O1853      C1872   1.284       .  A
O1854     Zr1862   2.448       .  S
O1854      C1873   1.288       .  A
O1855      C1872   1.283       .  A
O1856     Zr1864   2.435   1_565  S
O1856      C1871   1.285       .  A
O1857     Zr1862   2.389       .  S
O1857     Zr1864   2.360       .  S
O1858     Zr1863   2.394       .  S
O1858     Zr1864   2.386       .  S
O1858      H1893   0.966       .  S
O1859     Zr1862   2.403       .  S
O1859     Zr1879   2.395       .  S
O1859      H1896   0.966       .  S
O1860     Zr1863   2.387       .  S
O1860     Zr1879   2.385       .  S
Zr1861     O1886   2.443       .  S
Zr1861     O1880   2.466       .  S
Zr1861     O1888   2.467       .  S
Zr1861     O1876   2.424       .  S
Zr1861     O1867   2.388       .  S
Zr1861     O1868   2.431       .  S
Zr1861     O1869   2.387       .  S
Zr1861     O1870   2.386       .  S
Zr1862     O1881   2.436       .  S
Zr1862     O1874   2.436       .  S
Zr1862     O1875   2.447       .  S
Zr1862     O1868   2.404       .  S
Zr1862     O1869   2.394       .  S
Zr1863     O1865   2.439       .  S
Zr1863     O1887   2.439       .  S
Zr1863     O1889   2.442       .  S
Zr1863     O1867   2.371       .  S
Zr1863     O1870   2.399       .  S
Zr1864     O1890   2.434   1_545  S
Zr1864     O1891   2.434       .  S
Zr1864     O1866   2.434   1_545  S
Zr1864     O1867   2.378       .  S
Zr1864     O1868   2.409       .  S
O1865      H1902   0.990       .  S
O1866      H1897   0.990       .  S
O1866      H1911   0.990       .  S
O1868      H1894   0.967       .  S
O1869     Zr1879   2.376       .  S
O1870     Zr1879   2.401       .  S
O1870      H1895   0.965       .  S
C1871      C2740   1.483       .  S
C1872      C2644   1.479   1_655  S
C1873      C2776   1.497       .  S
O1874      H1910   0.990       .  S
O1875      C1877   1.287       .  A
O1876      C1877   1.280       .  A
C1877      C2629   1.480       .  S
O1878     Zr1879   2.434       .  S
O1878      H1907   0.990       .  S
Zr1879     O1882   2.436       .  S
Zr1879     O1883   2.439       .  S
Zr1879     O1884   2.387       .  S
O1880      C1885   1.287       .  A
O1881      H1898   0.990       .  S
O1881      H1913   0.990       .  S
O1882      H1899   0.990       .  S
O1883      H1903   0.991       .  S
O1883      H1912   0.990       .  S
O1884      C1885   1.276       .  A
C1885      C2749   1.488       .  S
O1886      H1905   0.991       .  S
O1886      H1909   0.990       .  S
O1887      H1901   0.990       .  S
O1887      H1908   0.989       .  S
O1888      C1892   1.291       .  A
O1889      C1892   1.285       .  A
O1890      H1900   0.990   1_565  S
O1891      H1904   0.990       .  S
C1892      C2569   1.493       .  S
Zr1915     O1916   2.440       .  S
Zr1915     O1917   2.455       .  S
Zr1915     O1918   2.483       .  S
Zr1915     O1921   2.418       .  S
Zr1915     O1923   2.383       .  S
Zr1915     O1924   2.395       .  S
Zr1915     O1925   2.407       .  S
Zr1915     O1926   2.419       .  S
O1916      H1972   0.990       .  S
O1916      H1980   0.990       .  S
O1917      C1937   1.287       .  A
O1918      C1939   1.292       .  A
O1919     Zr1929   2.448   1_455  S
O1919      C1938   1.288       .  A
O1920     Zr1928   2.435       .  S
O1920      C1939   1.284       .  A
O1921      C1938   1.281   1_655  A
O1922     Zr1930   2.390       .  S
O1922      C1937   1.276       .  A
O1923     Zr1928   2.388       .  S
O1923     Zr1930   2.394       .  S
O1924     Zr1929   2.393       .  S
O1924     Zr1930   2.374       .  S
O1924      H1959   0.966       .  S
O1925     Zr1928   2.406       .  S
O1925     Zr1945   2.366       .  S
O1925      H1962   0.963       .  S
O1926     Zr1929   2.398       .  S
O1926     Zr1945   2.399       .  S
Zr1927     O1952   2.442       .  S
Zr1927     O1946   2.421       .  S
Zr1927     O1954   2.425       .  S
Zr1927     O1942   2.427       .  S
Zr1927     O1933   2.402       .  S
Zr1927     O1934   2.397       .  S
Zr1927     O1935   2.379       .  S
Zr1927     O1936   2.382       .  S
Zr1928     O1947   2.440       .  S
Zr1928     O1940   2.434       .  S
Zr1928     O1941   2.417       .  S
Zr1928     O1934   2.392       .  S
Zr1928     O1935   2.391       .  S
Zr1929     O1931   2.434   1_655  S
Zr1929     O1953   2.436       .  S
Zr1929     O1955   2.456       .  S
Zr1929     O1933   2.403       .  S
Zr1929     O1936   2.388       .  S
Zr1930     O1956   2.437       .  S
Zr1930     O1957   2.437       .  S
Zr1930     O1932   2.438       .  S
Zr1930     O1933   2.397       .  S
Zr1930     O1934   2.378       .  S
O1931      H1968   0.990       .  S
O1932      H1963   0.990   1_545  S
O1932      H1977   0.990       .  S
O1934      H1960   0.966       .  S
O1935     Zr1945   2.375       .  S
O1936     Zr1945   2.356       .  S
O1936      H1961   0.964       .  S
C1937      C2656   1.471   1_545  S
C1938      C2581   1.481       .  S
C1939      C2572   1.496       .  S
O1940      H1976   0.990       .  S
O1941      C1943   1.283       .  A
O1942      C1943   1.283       .  A
C1943      C2593   1.487       .  S
O1944     Zr1945   2.439       .  S
O1944      H1973   0.991       .  S
Zr1945     O1948   2.436       .  S
Zr1945     O1949   2.441       .  S
Zr1945     O1950   2.417       .  S
O1946      C1951   1.282       .  A
O1947      H1964   0.989       .  S
O1947      H1979   0.989       .  S
O1948      H1965   0.990       .  S
O1949      H1969   0.989       .  S
O1949      H1978   0.990   1_655  S
O1950      C1951   1.282       .  A
C1951      C2668   1.483       .  S
O1952      H1971   0.990       .  S
O1952      H1975   0.990       .  S
O1953      H1967   0.990       .  S
O1953      H1974   0.990       .  S
O1954      C1958   1.286       .  A
O1955      C1958   1.289       .  A
O1956      H1966   0.990       .  S
O1957      H1970   0.990       .  S
C1958      C2560   1.496       .  S
Zr1981     O1982   2.442       .  S
Zr1981     O1983   2.474       .  S
Zr1981     O1984   2.467       .  S
Zr1981     O1987   2.398       .  S
Zr1981     O1989   2.372       .  S
Zr1981     O1990   2.388       .  S
Zr1981     O1991   2.406       .  S
Zr1981     O1992   2.425       .  S
O1982      H2038   0.990       .  S
O1982      H2046   0.990       .  S
O1983      C2003   1.290       .  A
O1984      C2005   1.290       .  A
O1985     Zr1995   2.448       .  S
O1985      C2004   1.288       .  A
O1986     Zr1994   2.445       .  S
O1986      C2005   1.285       .  A
O1987      C2004   1.277       .  A
O1988     Zr1996   2.386       .  S
O1988      C2003   1.275       .  A
O1989     Zr1994   2.394       .  S
O1989     Zr1996   2.399       .  S
O1990     Zr1995   2.391       .  S
O1990     Zr1996   2.373       .  S
O1990      H2025   0.966       .  S
O1991     Zr1994   2.394       .  S
O1991     Zr2011   2.374       .  S
O1991      H2028   0.963       .  S
O1992     Zr1995   2.394       .  S
O1992     Zr2011   2.401       .  S
Zr1993     O2018   2.442       .  S
Zr1993     O2012   2.416       .  S
Zr1993     O2020   2.445       .  S
Zr1993     O2008   2.464       .  S
Zr1993     O1999   2.398       .  S
Zr1993     O2000   2.400       .  S
Zr1993     O2001   2.381       .  S
Zr1993     O2002   2.390       .  S
Zr1994     O2013   2.441       .  S
Zr1994     O2006   2.435       .  S
Zr1994     O2007   2.415       .  S
Zr1994     O2000   2.405       .  S
Zr1994     O2001   2.394       .  S
Zr1995     O1997   2.435       .  S
Zr1995     O2019   2.437       .  S
Zr1995     O2021   2.445       .  S
Zr1995     O1999   2.399       .  S
Zr1995     O2002   2.390       .  S
Zr1996     O2022   2.435       .  S
Zr1996     O2023   2.436       .  S
Zr1996     O1998   2.438       .  S
Zr1996     O1999   2.386       .  S
Zr1996     O2000   2.378       .  S
O1997      H2034   0.990       .  S
O1998      H2029   0.990       .  S
O1998      H2043   0.990       .  S
O2000      H2026   0.965       .  S
O2001     Zr2011   2.373       .  S
O2002     Zr2011   2.355       .  S
O2002      H2027   0.966       .  S
C2003      C2509   1.479       .  S
C2004      C2533   1.474       .  S
C2005      C2548   1.504       .  S
O2006      H2042   0.990       .  S
O2007      C2009   1.282       .  A
O2008      C2009   1.292       .  A
C2009      C2524   1.493       .  S
O2010     Zr2011   2.437       .  S
O2010      H2039   0.990       .  S
Zr2011     O2014   2.437       .  S
Zr2011     O2015   2.440       .  S
Zr2011     O2016   2.424       .  S
O2012      C2017   1.281       .  A
O2013      H2030   0.990       .  S
O2013      H2045   0.990       .  S
O2014      H2031   0.990       .  S
O2015      H2035   0.990       .  S
O2015      H2044   0.990       .  S
O2016      C2017   1.284       .  A
C2017      C2497   1.474       .  S
O2018      H2037   0.991       .  S
O2018      H2041   0.989       .  S
O2019      H2033   0.990       .  S
O2019      H2040   0.990       .  S
O2020      C2024   1.290       .  A
O2021      C2024   1.287       .  A
O2022      H2032   0.990       .  S
O2023      H2036   0.990       .  S
C2024      C2701   1.508       .  S
Zr2047     O2048   2.436       .  S
Zr2047     O2049   2.426       .  S
Zr2047     O2050   2.446       .  S
Zr2047     O2053   2.431       .  S
Zr2047     O2055   2.385       .  S
Zr2047     O2056   2.384       .  S
Zr2047     O2057   2.402       .  S
Zr2047     O2058   2.396       .  S
O2048      H2104   0.990       .  S
O2048      H2112   0.989       .  S
O2049      C2069   1.282       .  A
O2050      C2071   1.288       .  A
O2051     Zr2061   2.416       .  S
O2051      C2070   1.281       .  A
O2052     Zr2060   2.447       .  S
O2052      C2071   1.288       .  A
O2053      C2070   1.284       .  A
O2054     Zr2062   2.432       .  S
O2054      C2069   1.284       .  A
O2055     Zr2060   2.394       .  S
O2055     Zr2062   2.367       .  S
O2056     Zr2061   2.387       .  S
O2056     Zr2062   2.380       .  S
O2056      H2091   0.965       .  S
O2057     Zr2060   2.400       .  S
O2057     Zr2077   2.395       .  S
O2057      H2094   0.966       .  S
O2058     Zr2061   2.390       .  S
O2058     Zr2077   2.379       .  S
Zr2059     O2084   2.444       .  S
Zr2059     O2078   2.457       .  S
Zr2059     O2086   2.478       .  S
Zr2059     O2074   2.420       .  S
Zr2059     O2065   2.384       .  S
Zr2059     O2066   2.429       .  S
Zr2059     O2067   2.393       .  S
Zr2059     O2068   2.388       .  S
Zr2060     O2079   2.438       .  S
Zr2060     O2072   2.436       .  S
Zr2060     O2073   2.441       .  S
Zr2060     O2066   2.401       .  S
Zr2060     O2067   2.393       .  S
Zr2061     O2063   2.439       .  S
Zr2061     O2085   2.438       .  S
Zr2061     O2087   2.427       .  S
Zr2061     O2065   2.376       .  S
Zr2061     O2068   2.393       .  S
Zr2062     O2088   2.434       .  S
Zr2062     O2089   2.434       .  S
Zr2062     O2064   2.436       .  S
Zr2062     O2065   2.383       .  S
Zr2062     O2066   2.407       .  S
O2063      H2100   0.990       .  S
O2064      H2095   0.990       .  S
O2064      H2109   0.990       .  S
O2066      H2092   0.966       .  S
O2067     Zr2077   2.373       .  S
O2068     Zr2077   2.399       .  S
O2068      H2093   0.966       .  S
C2069      C2464   1.476       .  S
C2070      C2485   1.475       .  S
C2071      C3352   1.493       .  S
O2072      H2108   0.990       .  S
O2073      C2075   1.286       .  A
O2074      C2075   1.281       .  A
C2075      C2473   1.481       .  S
O2076     Zr2077   2.434       .  S
O2076      H2105   0.990       .  S
Zr2077     O2080   2.438       .  S
Zr2077     O2081   2.434       .  S
Zr2077     O2082   2.391       .  S
O2078      C2083   1.286       .  A
O2079      H2096   0.990       .  S
O2079      H2111   0.990       .  S
O2080      H2097   0.989       .  S
O2081      H2101   0.990       .  S
O2081      H2110   0.990       .  S
O2082      C2083   1.276       .  A
C2083      C2452   1.476       .  S
O2084      H2103   0.990       .  S
O2084      H2107   0.990       .  S
O2085      H2099   0.990       .  S
O2085      H2106   0.990       .  S
O2086      C2090   1.293       .  A
O2087      C2090   1.283       .  A
O2088      H2098   0.990       .  S
O2089      H2102   0.990       .  S
C2090      C2545   1.504       .  S
Zr2113     O2114   2.439       .  S
Zr2113     O2115   2.475       .  S
Zr2113     O2116   2.477       .  S
Zr2113     O2119   2.422       .  S
Zr2113     O2121   2.378       .  S
Zr2113     O2122   2.391       .  S
Zr2113     O2123   2.411   1_455  S
Zr2113     O2124   2.425       .  S
O2114      H2170   0.989       .  S
O2114      H2178   0.990       .  S
O2115      C2135   1.291       .  A
O2116      C2137   1.291       .  A
O2117     Zr2127   2.444       .  S
O2117      C2136   1.288       .  A
O2118     Zr2126   2.415       .  S
O2118      C2137   1.282   1_655  A
O2119      C2136   1.281       .  A
O2120     Zr2128   2.384       .  S
O2120      C2135   1.274       .  A
O2121     Zr2126   2.397   1_455  S
O2121     Zr2128   2.391       .  S
O2122     Zr2127   2.395       .  S
O2122     Zr2128   2.378       .  S
O2122      H2157   0.966       .  S
O2123     Zr2126   2.398       .  S
O2123     Zr2143   2.379       .  S
O2123      H2160   0.963       .  S
O2124     Zr2127   2.399       .  S
O2124     Zr2143   2.407   1_455  S
Zr2125     O2150   2.440       .  S
Zr2125     O2144   2.411       .  S
Zr2125     O2152   2.422       .  S
Zr2125     O2140   2.444       .  S
Zr2125     O2131   2.399   1_655  S
Zr2125     O2132   2.389       .  S
Zr2125     O2133   2.373       .  S
Zr2125     O2134   2.385       .  S
Zr2126     O2145   2.435       .  S
Zr2126     O2138   2.434       .  S
Zr2126     O2139   2.416       .  S
Zr2126     O2132   2.393       .  S
Zr2126     O2133   2.384       .  S
Zr2127     O2129   2.436       .  S
Zr2127     O2151   2.436       .  S
Zr2127     O2153   2.455       .  S
Zr2127     O2131   2.396       .  S
Zr2127     O2134   2.387   1_455  S
Zr2128     O2154   2.433       .  S
Zr2128     O2155   2.434       .  S
Zr2128     O2130   2.434       .  S
Zr2128     O2131   2.392       .  S
Zr2128     O2132   2.370   1_455  S
O2129      H2166   0.990       .  S
O2130      H2161   0.989       .  S
O2130      H2175   0.990       .  S
O2132      H2158   0.965       .  S
O2133     Zr2143   2.371       .  S
O2134     Zr2143   2.353       .  S
O2134      H2159   0.964       .  S
C2135      C2425   1.492       .  S
C2136      C2512   1.484       .  S
C2137      C2437   1.493       .  S
O2138      H2174   0.990       .  S
O2139      C2141   1.282       .  A
O2140      C2141   1.288       .  A
C2141      C2500   1.483       .  S
O2142     Zr2143   2.439       .  S
O2142      H2171   0.990       .  S
Zr2143     O2146   2.438       .  S
Zr2143     O2147   2.441       .  S
Zr2143     O2148   2.438       .  S
O2144      C2149   1.280       .  A
O2145      H2162   0.990       .  S
O2145      H2177   0.990       .  S
O2146      H2163   0.990       .  S
O2147      H2167   0.990       .  S
O2147      H2176   0.990   1_655  S
O2148      C2149   1.287       .  A
C2149      C2416   1.488       .  S
O2150      H2169   0.990       .  S
O2150      H2173   0.990       .  S
O2151      H2165   0.990       .  S
O2151      H2172   0.990       .  S
O2152      C2156   1.284       .  A
O2153      C2156   1.291   1_455  A
O2154      H2164   0.990       .  S
O2155      H2168   0.989   1_455  S
C2156      C2557   1.498       .  S
Zr2179     O2180   2.438       .  S
Zr2179     O2181   2.408       .  S
Zr2179     O2182   2.435       .  S
Zr2179     O2185   2.434       .  S
Zr2179     O2187   2.384       .  S
Zr2179     O2188   2.386       .  S
Zr2179     O2189   2.394   1_455  S
Zr2179     O2190   2.392       .  S
O2180      H2236   0.990       .  S
O2180      H2244   0.990       .  S
O2181      C2201   1.279       .  A
O2182      C2203   1.286       .  A
O2183     Zr2193   2.430       .  S
O2183      C2202   1.285       .  A
O2184     Zr2192   2.438       .  S
O2184      C2203   1.286   1_655  A
O2185      C2202   1.285       .  A
O2186     Zr2194   2.434       .  S
O2186      C2201   1.286       .  A
O2187     Zr2192   2.389   1_455  S
O2187     Zr2194   2.362       .  S
O2188     Zr2193   2.383       .  S
O2188     Zr2194   2.379       .  S
O2188      H2223   0.966       .  S
O2189     Zr2192   2.398       .  S
O2189     Zr2209   2.389       .  S
O2189      H2226   0.965       .  S
O2190     Zr2193   2.386       .  S
O2190     Zr2209   2.377   1_455  S
Zr2191     O2216   2.438       .  S
Zr2191     O2210   2.470       .  S
Zr2191     O2218   2.485       .  S
Zr2191     O2206   2.423       .  S
Zr2191     O2197   2.396   1_655  S
Zr2191     O2198   2.427       .  S
Zr2191     O2199   2.389       .  S
Zr2191     O2200   2.386       .  S
Zr2192     O2211   2.436       .  S
Zr2192     O2204   2.434       .  S
Zr2192     O2205   2.439       .  S
Zr2192     O2198   2.396       .  S
Zr2192     O2199   2.391       .  S
Zr2193     O2195   2.435       .  S
Zr2193     O2217   2.439       .  S
Zr2193     O2219   2.417       .  S
Zr2193     O2197   2.385       .  S
Zr2193     O2200   2.393   1_455  S
Zr2194     O2220   2.435       .  S
Zr2194     O2221   2.437       .  S
Zr2194     O2196   2.438       .  S
Zr2194     O2197   2.392       .  S
Zr2194     O2198   2.404   1_455  S
O2195      H2232   0.990       .  S
O2196      H2227   0.990       .  S
O2196      H2241   0.990       .  S
O2198      H2224   0.965       .  S
O2199     Zr2209   2.379       .  S
O2200     Zr2209   2.396       .  S
O2200      H2225   0.965       .  S
C2201      C2401   1.480       .  S
C2202      C2461   1.482       .  S
C2203      C3208   1.498       .  S
O2204      H2240   0.989       .  S
O2205      C2207   1.287       .  A
O2206      C2207   1.281       .  A
C2207      C2449   1.482       .  S
O2208     Zr2209   2.436       .  S
O2208      H2237   0.990   1_655  S
Zr2209     O2212   2.436       .  S
Zr2209     O2213   2.439       .  S
Zr2209     O2214   2.384       .  S
O2210      C2215   1.289       .  A
O2211      H2228   0.990       .  S
O2211      H2243   0.990       .  S
O2212      H2229   0.990       .  S
O2213      H2233   0.990       .  S
O2213      H2242   0.990       .  S
O2214      C2215   1.276       .  A
C2215      C2392   1.490       .  S
O2216      H2235   0.989       .  S
O2216      H2239   0.990       .  S
O2217      H2231   0.990       .  S
O2217      H2238   0.990       .  S
O2218      C2222   1.293       .  A
O2219      C2222   1.282   1_455  A
O2220      H2230   0.990       .  S
O2221      H2234   0.990   1_455  S
C2222      C2440   1.496       .  S
Zr2245     O2246   2.443       .  S
Zr2245     O2247   2.447       .  S
Zr2245     O2248   2.451       .  S
Zr2245     O2251   2.421       .  S
Zr2245     O2253   2.378       .  S
Zr2245     O2254   2.388       .  S
Zr2245     O2255   2.413   1_565  S
Zr2245     O2256   2.417       .  S
O2246      H2302   0.991       .  S
O2246      H2310   0.990       .  S
O2247      C2267   1.286       .  A
O2248      C2269   1.287       .  A
O2249     Zr2259   2.448       .  S
O2249      C2268   1.289       .  A
O2250     Zr2258   2.440       .  S
O2250      C2269   1.285   1_545  A
O2251      C2268   1.280       .  A
O2252     Zr2260   2.388       .  S
O2252      C2267   1.275       .  A
O2253     Zr2258   2.388   1_565  S
O2253     Zr2260   2.397       .  S
O2254     Zr2259   2.389       .  S
O2254     Zr2260   2.379       .  S
O2254      H2289   0.966       .  S
O2255     Zr2258   2.401       .  S
O2255     Zr2275   2.370       .  S
O2255      H2292   0.962       .  S
O2256     Zr2259   2.392       .  S
O2256     Zr2275   2.407   1_565  S
Zr2257     O2282   2.442       .  S
Zr2257     O2276   2.407       .  S
Zr2257     O2284   2.425       .  S
Zr2257     O2272   2.445       .  S
Zr2257     O2263   2.396   1_545  S
Zr2257     O2264   2.390       .  S
Zr2257     O2265   2.378       .  S
Zr2257     O2266   2.385       .  S
Zr2258     O2277   2.437       .  S
Zr2258     O2270   2.434       .  S
Zr2258     O2271   2.426       .  S
Zr2258     O2264   2.398       .  S
Zr2258     O2265   2.391       .  S
Zr2259     O2261   2.436       .  S
Zr2259     O2283   2.434       .  S
Zr2259     O2285   2.446       .  S
Zr2259     O2263   2.395       .  S
Zr2259     O2266   2.391   1_565  S
Zr2260     O2286   2.436       .  S
Zr2260     O2287   2.440       .  S
Zr2260     O2262   2.434       .  S
Zr2260     O2263   2.384       .  S
Zr2260     O2264   2.371   1_565  S
O2261      H2298   0.990       .  S
O2262      H2293   0.990       .  S
O2262      H2307   0.990       .  S
O2264      H2290   0.966       .  S
O2265     Zr2275   2.377       .  S
O2266     Zr2275   2.349       .  S
O2266      H2291   0.965       .  S
C2267      C2536   1.476       .  S
C2268      C2428   1.489       .  S
C2269      C2380   1.489       .  S
O2270      H2306   0.990       .  S
O2271      C2273   1.285       .  A
O2272      C2273   1.288       .  A
C2273      C2413   1.483       .  S
O2274     Zr2275   2.439       .  S
O2274      H2303   0.990       .  S
Zr2275     O2278   2.436       .  S
Zr2275     O2279   2.440       .  S
Zr2275     O2280   2.437       .  S
O2276      C2281   1.279       .  A
O2277      H2294   0.990       .  S
O2277      H2309   0.990       .  S
O2278      H2295   0.990       .  S
O2279      H2299   0.990       .  S
O2279      H2308   0.990   1_545  S
O2280      C2281   1.287       .  A
C2281      C2521   1.495       .  S
O2282      H2301   0.990       .  S
O2282      H2305   0.990       .  S
O2283      H2297   0.990       .  S
O2283      H2304   0.990       .  S
O2284      C2288   1.286       .  A
O2285      C2288   1.288   1_565  A
O2286      H2296   0.990       .  S
O2287      H2300   0.990       .  S
C2288      C2608   1.499       .  S
Zr2311     O2312   2.437       .  S
Zr2311     O2313   2.407       .  S
Zr2311     O2314   2.438       .  S
Zr2311     O2317   2.431       .  S
Zr2311     O2319   2.379       .  S
Zr2311     O2320   2.386       .  S
Zr2311     O2321   2.397       .  S
Zr2311     O2322   2.392       .  S
O2312      H2368   0.990       .  S
O2312      H2376   0.990       .  S
O2313      C2333   1.280       .  A
O2314      C2335   1.288       .  A
O2315     Zr2325   2.422       .  S
O2315      C2334   1.283       .  A
O2316     Zr2324   2.437   1_565  S
O2316      C2335   1.286       .  A
O2317      C2334   1.286       .  A
O2318     Zr2326   2.440       .  S
O2318      C2333   1.286       .  A
O2319     Zr2324   2.389   1_565  S
O2319     Zr2326   2.358       .  S
O2320     Zr2325   2.391       .  S
O2320     Zr2326   2.382       .  S
O2320      H2355   0.965       .  S
O2321     Zr2324   2.398   1_565  S
O2321     Zr2341   2.395   1_565  S
O2321      H2358   0.966   1_565  S
O2322     Zr2325   2.386       .  S
O2322     Zr2341   2.380   1_565  S
Zr2323     O2348   2.444       .  S
Zr2323     O2342   2.457       .  S
Zr2323     O2350   2.466       .  S
Zr2323     O2338   2.419       .  S
Zr2323     O2329   2.384   1_545  S
Zr2323     O2330   2.422       .  S
Zr2323     O2331   2.381       .  S
Zr2323     O2332   2.389       .  S
Zr2324     O2343   2.432       .  S
Zr2324     O2336   2.432       .  S
Zr2324     O2337   2.444       .  S
Zr2324     O2330   2.398       .  S
Zr2324     O2331   2.383       .  S
Zr2325     O2327   2.435       .  S
Zr2325     O2349   2.439       .  S
Zr2325     O2351   2.426       .  S
Zr2325     O2329   2.373       .  S
Zr2325     O2332   2.397   1_565  S
Zr2326     O2352   2.437       .  S
Zr2326     O2353   2.435       .  S
Zr2326     O2328   2.434       .  S
Zr2326     O2329   2.378       .  S
Zr2326     O2330   2.415   1_565  S
O2327      H2364   0.989       .  S
O2328      H2359   0.990       .  S
O2328      H2373   0.990       .  S
O2330      H2356   0.967       .  S
O2331     Zr2341   2.379       .  S
O2332     Zr2341   2.403       .  S
O2332      H2357   0.965       .  S
C2333      C2488   1.480       .  S
C2334      C2404   1.478       .  S
C2335      C3256   1.492       .  S
O2336      H2372   0.989       .  S
O2337      C2339   1.288       .  A
O2338      C2339   1.280       .  A
C2339      C2389   1.492       .  S
O2340     Zr2341   2.440   1_565  S
O2340      H2369   0.990       .  S
Zr2341     O2344   2.436       .  S
Zr2341     O2345   2.439       .  S
Zr2341     O2346   2.393       .  S
O2342      C2347   1.287       .  A
O2343      H2360   0.990       .  S
O2343      H2375   0.990       .  S
O2344      H2361   0.990       .  S
O2345      H2365   0.990       .  S
O2345      H2374   0.989       .  S
O2346      C2347   1.276       .  A
C2347      C2476   1.476       .  S
O2348      H2367   0.990       .  S
O2348      H2371   0.991       .  S
O2349      H2363   0.990       .  S
O2349      H2370   0.990       .  S
O2350      C2354   1.289       .  A
O2351      C2354   1.282   1_565  A
O2352      H2362   0.990       .  S
O2353      H2366   0.991       .  S
C2354      C2377   1.492   1_545  S
C2377      C2378   1.408   1_565  A
C2377      C2382   1.415       .  A
C2378      C2379   1.404   1_556  A
C2378      H2383   1.084       .  S
C2379      C2380   1.413   1_545  A
C2379      C2386   1.444       .  S
C2380      C2381   1.408       .  A
C2381      C2382   1.400   1_554  A
C2381      H2384   1.085       .  S
C2382      C2385   1.445       .  S
C2385      N2387   1.157       .  T
C2386      N2388   1.157       .  T
C2389      C2390   1.413       .  A
C2389      C2394   1.411       .  A
C2390      C2391   1.407       .  A
C2390      H2395   1.084       .  S
C2391      C2392   1.411       .  A
C2391      C2398   1.444       .  S
C2392      C2393   1.409       .  A
C2393      C2394   1.396       .  A
C2393      H2396   1.085       .  S
C2394      C2397   1.444       .  S
C2397      N2399   1.157       .  T
C2398      N2400   1.157       .  T
C2401      C2402   1.401       .  A
C2401      C2406   1.418       .  A
C2402      C2403   1.394       .  A
C2402      H2407   1.085       .  S
C2403      C2404   1.414       .  A
C2403      C2410   1.443       .  S
C2404      C2405   1.403       .  A
C2405      C2406   1.401       .  A
C2405      H2408   1.085       .  S
C2406      C2409   1.446       .  S
C2409      N2411   1.158       .  T
C2410      N2412   1.157       .  T
C2413      C2414   1.402       .  A
C2413      C2418   1.416       .  A
C2414      C2415   1.402       .  A
C2414      H2419   1.084       .  S
C2415      C2416   1.421       .  A
C2415      C2422   1.444       .  S
C2416      C2417   1.403       .  A
C2417      C2418   1.397       .  A
C2417      H2420   1.085       .  S
C2418      C2421   1.445       .  S
C2421      N2423   1.157       .  T
C2422      N2424   1.157       .  T
C2425      C2426   1.404       .  A
C2425      C2430   1.421       .  A
C2426      C2427   1.405       .  A
C2426      H2431   1.085       .  S
C2427      C2428   1.419       .  A
C2427      C2434   1.441       .  S
C2428      C2429   1.399       .  A
C2429      C2430   1.398       .  A
C2429      H2432   1.085       .  S
C2430      C2433   1.444       .  S
C2433      N2435   1.157       .  T
C2434      N2436   1.156       .  T
C2437      C2438   1.411   1_455  A
C2437      C2442   1.411       .  A
C2438      C2439   1.401   1_554  A
C2438      H2443   1.083       .  S
C2439      C2440   1.410       .  A
C2439      C2446   1.443       .  S
C2440      C2441   1.413   1_655  A
C2441      C2442   1.404   1_556  A
C2441      H2444   1.084       .  S
C2442      C2445   1.443       .  S
C2445      N2447   1.157       .  T
C2446      N2448   1.157       .  T
C2449      C2450   1.400       .  A
C2449      C2454   1.418       .  A
C2450      C2451   1.394       .  A
C2450      H2455   1.085       .  S
C2451      C2452   1.414       .  A
C2451      C2458   1.446       .  S
C2452      C2453   1.402       .  A
C2453      C2454   1.406       .  A
C2453      H2456   1.085       .  S
C2454      C2457   1.444       .  S
C2457      N2459   1.157       .  T
C2458      N2460   1.157       .  T
C2461      C2462   1.404       .  A
C2461      C2466   1.415       .  A
C2462      C2463   1.397       .  A
C2462      H2467   1.085       .  S
C2463      C2464   1.411       .  A
C2463      C2470   1.445       .  S
C2464      C2465   1.402       .  A
C2465      C2466   1.404       .  A
C2465      H2468   1.085       .  S
C2466      C2469   1.443       .  S
C2469      N2471   1.157       .  T
C2470      N2472   1.157       .  T
C2473      C2474   1.402       .  A
C2473      C2478   1.417       .  A
C2474      C2475   1.398       .  A
C2474      H2479   1.085       .  S
C2475      C2476   1.414       .  A
C2475      C2482   1.446       .  S
C2476      C2477   1.400       .  A
C2477      C2478   1.402       .  A
C2477      H2480   1.085       .  S
C2478      C2481   1.444       .  S
C2481      N2483   1.157       .  T
C2482      N2484   1.157       .  T
C2485      C2486   1.405       .  A
C2485      C2490   1.410       .  A
C2486      C2487   1.396       .  A
C2486      H2491   1.085       .  S
C2487      C2488   1.410       .  A
C2487      C2494   1.444       .  S
C2488      C2489   1.409       .  A
C2489      C2490   1.400       .  A
C2489      H2492   1.085       .  S
C2490      C2493   1.445       .  S
C2493      N2495   1.158       .  T
C2494      N2496   1.157       .  T
C2497      C2498   1.399       .  A
C2497      C2502   1.411       .  A
C2498      C2499   1.394       .  A
C2498      H2503   1.086       .  S
C2499      C2500   1.417       .  A
C2499      C2506   1.444       .  S
C2500      C2501   1.407       .  A
C2501      C2502   1.401       .  A
C2501      H2504   1.085       .  S
C2502      C2505   1.443       .  S
C2505      N2507   1.157       .  T
C2506      N2508   1.157       .  T
C2509      C2510   1.402       .  A
C2509      C2514   1.415       .  A
C2510      C2511   1.406       .  A
C2510      H2515   1.085       .  S
C2511      C2512   1.418       .  A
C2511      C2518   1.443       .  S
C2512      C2513   1.401       .  A
C2513      C2514   1.397       .  A
C2513      H2516   1.085       .  S
C2514      C2517   1.445       .  S
C2517      N2519   1.157       .  T
C2518      N2520   1.157       .  T
C2521      C2522   1.404       .  A
C2521      C2526   1.422       .  A
C2522      C2523   1.397       .  A
C2522      H2527   1.085       .  S
C2523      C2524   1.420       .  A
C2523      C2530   1.445       .  S
C2524      C2525   1.404       .  A
C2525      C2526   1.404       .  A
C2525      H2528   1.085       .  S
C2526      C2529   1.445       .  S
C2529      N2531   1.158       .  T
C2530      N2532   1.157       .  T
C2533      C2534   1.400       .  A
C2533      C2538   1.414       .  A
C2534      C2535   1.400       .  A
C2534      H2539   1.085       .  S
C2535      C2536   1.416       .  A
C2535      C2542   1.444       .  S
C2536      C2537   1.400       .  A
C2537      C2538   1.396       .  A
C2537      H2540   1.081       .  S
C2538      C2541   1.445       .  S
C2541      N2543   1.157       .  T
C2542      N2544   1.157       .  T
C2545      C2546   1.408       .  A
C2545      C2550   1.420       .  A
C2546      C2547   1.409   1_556  A
C2546      H2551   1.084       .  S
C2547      C2548   1.419       .  A
C2547      C2554   1.444       .  S
C2548      C2549   1.407       .  A
C2549      C2550   1.404   1_554  A
C2549      H2552   1.084       .  S
C2550      C2553   1.445       .  S
C2553      N2555   1.157       .  T
C2554      N2556   1.157       .  T
C2557      C2558   1.408       .  A
C2557      C2562   1.421       .  A
C2558      C2559   1.405       .  A
C2558      H2563   1.084   1_655  S
C2559      C2560   1.417       .  A
C2559      C2566   1.443   1_655  S
C2560      C2561   1.407       .  A
C2561      C2562   1.398       .  A
C2561      H2564   1.085       .  S
C2562      C2565   1.446       .  S
C2565      N2567   1.158       .  T
C2566      N2568   1.157       .  T
C2569      C2570   1.399       .  A
C2569      C2574   1.419       .  A
C2570      C2571   1.400       .  A
C2570      H2575   1.085       .  S
C2571      C2572   1.422       .  A
C2571      C2578   1.443       .  S
C2572      C2573   1.404       .  A
C2573      C2574   1.408       .  A
C2573      H2576   1.085       .  S
C2574      C2577   1.443       .  S
C2577      N2579   1.157       .  T
C2578      N2580   1.157       .  T
C2581      C2582   1.401       .  A
C2581      C2586   1.416       .  A
C2582      C2583   1.401       .  A
C2582      H2587   1.085       .  S
C2583      C2584   1.416       .  A
C2583      C2590   1.444       .  S
C2584      C2585   1.401       .  A
C2585      C2586   1.402       .  A
C2585      H2588   1.085       .  S
C2586      C2589   1.444       .  S
C2589      N2591   1.157   1_455  T
C2590      N2592   1.157       .  T
C2593      C2594   1.405       .  A
C2593      C2598   1.415       .  A
C2594      C2595   1.392       .  A
C2594      H2599   1.085       .  S
C2595      C2596   1.417       .  A
C2595      C2602   1.445       .  S
C2596      C2597   1.409       .  A
C2597      C2598   1.403       .  A
C2597      H2600   1.084       .  S
C2598      C2601   1.443       .  S
C2601      N2603   1.157       .  T
C2602      N2604   1.157       .  T
C2605      C2606   1.408       .  A
C2605      C2610   1.420       .  A
C2606      C2607   1.405       .  A
C2606      H2611   1.084       .  S
C2607      C2608   1.418       .  A
C2607      C2614   1.443   1_545  S
C2608      C2609   1.407       .  A
C2609      C2610   1.397       .  A
C2609      H2612   1.085       .  S
C2610      C2613   1.446       .  S
C2613      N2615   1.158       .  T
C2614      N2616   1.157       .  T
C2617      C2618   1.401       .  A
C2617      C2622   1.419       .  A
C2618      C2619   1.400       .  A
C2618      H2623   1.085       .  S
C2619      C2620   1.420       .  A
C2619      C2626   1.441       .  S
C2620      C2621   1.405       .  A
C2621      C2622   1.406       .  A
C2621      H2624   1.085       .  S
C2622      C2625   1.444       .  S
C2625      N2627   1.157       .  T
C2626      N2628   1.156       .  T
C2629      C2630   1.397       .  A
C2629      C2634   1.415       .  A
C2630      C2631   1.399       .  A
C2630      H2635   1.086       .  S
C2631      C2632   1.421       .  A
C2631      C2638   1.444       .  S
C2632      C2633   1.406       .  A
C2633      C2634   1.407       .  A
C2633      H2636   1.085       .  S
C2634      C2637   1.444       .  S
C2637      N2639   1.157       .  T
C2638      N2640   1.157       .  T
C2641      C2642   1.402       .  A
C2641      C2646   1.412       .  A
C2642      C2643   1.400       .  A
C2642      H2647   1.085       .  S
C2643      C2644   1.412       .  A
C2643      C2650   1.444       .  S
C2644      C2645   1.405       .  A
C2645      C2646   1.404       .  A
C2645      H2648   1.085       .  S
C2646      C2649   1.443       .  S
C2649      N2651   1.157       .  T
C2650      N2652   1.157   1_455  T
C2653      C2654   1.400       .  A
C2653      C2658   1.413       .  A
C2654      C2655   1.393       .  A
C2654      H2659   1.085       .  S
C2655      C2656   1.413       .  A
C2655      C2662   1.446       .  S
C2656      C2657   1.402       .  A
C2657      C2658   1.403       .  A
C2657      H2660   1.085       .  S
C2658      C2661   1.443       .  S
C2661      N2663   1.157       .  T
C2662      N2664   1.157   1_565  T
C2665      C2666   1.403       .  A
C2665      C2670   1.411       .  A
C2666      C2667   1.393       .  A
C2666      H2671   1.085       .  S
C2667      C2668   1.413       .  A
C2667      C2674   1.445       .  S
C2668      C2669   1.407       .  A
C2669      C2670   1.403       .  A
C2669      H2672   1.080       .  S
C2670      C2673   1.445       .  S
C2673      N2675   1.157       .  T
C2674      N2676   1.157       .  T
C2677      C2678   1.409       .  A
C2677      C2682   1.410       .  A
C2678      C2679   1.404       .  A
C2678      H2683   1.085       .  S
C2679      C2680   1.411       .  A
C2679      C2686   1.445       .  S
C2680      C2681   1.407       .  A
C2681      C2682   1.399       .  A
C2681      H2684   1.085       .  S
C2682      C2685   1.443       .  S
C2685      N2687   1.157       .  T
C2686      N2688   1.158   1_455  T
C2689      C2690   1.404       .  A
C2689      C2694   1.412       .  A
C2690      C2691   1.401       .  A
C2690      H2695   1.085       .  S
C2691      C2692   1.416       .  A
C2691      C2698   1.442       .  S
C2692      C2693   1.408       .  A
C2693      C2694   1.397       .  A
C2693      H2696   1.084       .  S
C2694      C2697   1.445       .  S
C2697      N2699   1.157       .  T
C2698      N2700   1.157       .  T
C2701      C2702   1.406       .  A
C2701      C2706   1.421       .  A
C2702      C2703   1.402       .  A
C2702      H2707   1.084       .  S
C2703      C2704   1.422       .  A
C2703      C2710   1.444       .  S
C2704      C2705   1.411       .  A
C2705      C2706   1.411       .  A
C2705      H2708   1.084       .  S
C2706      C2709   1.444       .  S
C2709      N2711   1.157       .  T
C2710      N2712   1.157       .  T
C2713      C2714   1.404       .  A
C2713      C2718   1.419       .  A
C2714      C2715   1.400       .  A
C2714      H2719   1.085       .  S
C2715      C2716   1.417       .  A
C2715      C2722   1.444       .  S
C2716      C2717   1.406       .  A
C2717      C2718   1.405       .  A
C2717      H2720   1.085       .  S
C2718      C2721   1.443       .  S
C2721      N2723   1.157   1_455  T
C2722      N2724   1.157       .  T
C2725      C2726   1.401       .  A
C2725      C2730   1.417       .  A
C2726      C2727   1.399       .  A
C2726      H2731   1.085       .  S
C2727      C2728   1.414       .  A
C2727      C2734   1.446       .  S
C2728      C2729   1.402       .  A
C2729      C2730   1.407       .  A
C2729      H2732   1.085       .  S
C2730      C2733   1.443       .  S
C2733      N2735   1.157       .  T
C2734      N2736   1.157       .  T
C2737      C2738   1.400       .  A
C2737      C2742   1.412       .  A
C2738      C2739   1.397       .  A
C2738      H2743   1.081       .  S
C2739      C2740   1.418       .  A
C2739      C2746   1.446       .  S
C2740      C2741   1.406       .  A
C2741      C2742   1.399       .  A
C2741      H2744   1.085       .  S
C2742      C2745   1.444       .  S
C2745      N2747   1.157       .  T
C2746      N2748   1.158   1_565  T
C2749      C2750   1.405       .  A
C2749      C2754   1.412       .  A
C2750      C2751   1.393       .  A
C2750      H2755   1.085       .  S
C2751      C2752   1.414       .  A
C2751      C2758   1.444       .  S
C2752      C2753   1.413       .  A
C2753      C2754   1.409       .  A
C2753      H2756   1.084       .  S
C2754      C2757   1.443       .  S
C2757      N2759   1.157       .  T
C2758      N2760   1.157       .  T
C2761      C2762   1.408       .  A
C2761      C2766   1.418       .  A
C2762      C2763   1.410       .  A
C2762      H2767   1.085       .  S
C2763      C2764   1.420       .  A
C2763      C2770   1.444       .  S
C2764      C2765   1.408       .  A
C2765      C2766   1.405       .  A
C2765      H2768   1.085       .  S
C2766      C2769   1.444       .  S
C2769      N2771   1.157       .  T
C2770      N2772   1.157       .  T
C2773      C2774   1.407       .  A
C2773      C2778   1.416       .  A
C2774      C2775   1.401   1_565  A
C2774      H2779   1.085       .  S
C2775      C2776   1.415       .  A
C2775      C2782   1.442       .  S
C2776      C2777   1.409   1_545  A
C2777      C2778   1.409       .  A
C2777      H2780   1.085       .  S
C2778      C2781   1.443       .  S
C2781      N2783   1.157       .  T
C2782      N2784   1.157       .  T
C2785      C2786   1.407       .  A
C2785      C2790   1.418       .  A
C2786      C2787   1.404       .  A
C2786      H2791   1.085       .  S
C2787      C2788   1.417       .  A
C2787      C2794   1.445       .  S
C2788      C2789   1.406       .  A
C2789      C2790   1.401       .  A
C2789      H2792   1.085       .  S
C2790      C2793   1.444       .  S
C2793      N2795   1.157       .  T
C2794      N2796   1.157       .  T
C2797      C2798   1.410       .  A
C2797      C2802   1.412       .  A
C2798      C2799   1.398       .  A
C2798      H2803   1.085       .  S
C2799      C2800   1.408       .  A
C2799      C2806   1.443       .  S
C2800      C2801   1.408       .  A
C2801      C2802   1.401       .  A
C2801      H2804   1.085       .  S
C2802      C2805   1.443       .  S
C2805      N2807   1.157   1_655  T
C2806      N2808   1.157       .  T
C2809      C2810   1.403       .  A
C2809      C2814   1.416       .  A
C2810      C2811   1.397       .  A
C2810      H2815   1.085       .  S
C2811      C2812   1.419       .  A
C2811      C2818   1.444       .  S
C2812      C2813   1.406       .  A
C2813      C2814   1.403       .  A
C2813      H2816   1.085       .  S
C2814      C2817   1.442       .  S
C2817      N2819   1.157       .  T
C2818      N2820   1.157       .  T
C2821      C2822   1.403       .  A
C2821      C2826   1.414       .  A
C2822      C2823   1.408       .  A
C2822      H2827   1.085       .  S
C2823      C2824   1.418       .  A
C2823      C2830   1.444       .  S
C2824      C2825   1.401       .  A
C2825      C2826   1.396       .  A
C2825      H2828   1.085       .  S
C2826      C2829   1.445       .  S
C2829      N2831   1.157       .  T
C2830      N2832   1.157       .  T
C2833      C2834   1.411       .  A
C2833      C2838   1.414       .  A
C2834      C2835   1.402       .  A
C2834      H2839   1.085       .  S
C2835      C2836   1.410       .  A
C2835      C2842   1.445       .  S
C2836      C2837   1.402       .  A
C2837      C2838   1.396       .  A
C2837      H2840   1.085       .  S
C2838      C2841   1.444       .  S
C2841      N2843   1.157       .  T
C2842      N2844   1.158       .  T
C2845      C2846   1.408       .  A
C2845      C2850   1.418       .  A
C2846      C2847   1.408       .  A
C2846      H2851   1.085       .  S
C2847      C2848   1.418       .  A
C2847      C2854   1.443       .  S
C2848      C2849   1.407       .  A
C2849      C2850   1.401       .  A
C2849      H2852   1.084       .  S
C2850      C2853   1.446       .  S
C2853      N2855   1.158       .  T
C2854      N2856   1.157       .  T
C2857      C2858   1.409       .  A
C2857      C2862   1.419   1_455  A
C2858      C2859   1.408   1_455  A
C2858      H2863   1.084       .  S
C2859      C2860   1.419       .  A
C2859      C2866   1.444       .  S
C2860      C2861   1.408       .  A
C2861      C2862   1.403       .  A
C2861      H2864   1.085       .  S
C2862      C2865   1.445       .  S
C2865      N2867   1.157       .  T
C2866      N2868   1.157       .  T
C2869      C2870   1.403       .  A
C2869      C2874   1.413       .  A
C2870      C2871   1.407       .  A
C2870      H2875   1.085       .  S
C2871      C2872   1.417       .  A
C2871      C2878   1.444       .  S
C2872      C2873   1.401       .  A
C2873      C2874   1.395       .  A
C2873      H2876   1.085       .  S
C2874      C2877   1.445   1_545  S
C2877      N2879   1.157       .  T
C2878      N2880   1.157       .  T
C2881      C2882   1.410       .  A
C2881      C2886   1.413       .  A
C2882      C2883   1.399       .  A
C2882      H2887   1.085       .  S
C2883      C2884   1.416       .  A
C2883      C2890   1.446       .  S
C2884      C2885   1.411       .  A
C2885      C2886   1.402       .  A
C2885      H2888   1.084       .  S
C2886      C2889   1.444       .  S
C2889      N2891   1.157       .  T
C2890      N2892   1.158       .  T
C2893      C2894   1.409       .  A
C2893      C2898   1.409       .  A
C2894      C2895   1.405       .  A
C2894      H2899   1.084   1_545  S
C2895      C2896   1.412       .  A
C2895      C2902   1.445       .  S
C2896      C2897   1.408       .  A
C2897      C2898   1.399       .  A
C2897      H2900   1.085       .  S
C2898      C2901   1.443       .  S
C2901      N2903   1.157       .  T
C2902      N2904   1.158       .  T
C2905      C2906   1.405       .  A
C2905      C2910   1.410       .  A
C2906      C2907   1.393       .  A
C2906      H2911   1.085       .  S
C2907      C2908   1.412       .  A
C2907      C2914   1.445       .  S
C2908      C2909   1.409       .  A
C2909      C2910   1.400       .  A
C2909      H2912   1.084       .  S
C2910      C2913   1.444       .  S
C2913      N2915   1.157       .  T
C2914      N2916   1.157       .  T
C2917      C2918   1.405       .  A
C2917      C2922   1.414       .  A
C2918      C2919   1.394       .  A
C2918      H2923   1.085       .  S
C2919      C2920   1.409       .  A
C2919      C2926   1.445       .  S
C2920      C2921   1.405       .  A
C2921      C2922   1.405       .  A
C2921      H2924   1.085       .  S
C2922      C2925   1.443       .  S
C2925      N2927   1.157       .  T
C2926      N2928   1.157   1_545  T
C2929      C2930   1.406       .  A
C2929      C2934   1.410       .  A
C2930      C2931   1.398       .  A
C2930      H2935   1.085       .  S
C2931      C2932   1.413       .  A
C2931      C2938   1.445       .  S
C2932      C2933   1.410       .  A
C2933      C2934   1.407       .  A
C2933      H2936   1.085       .  S
C2934      C2937   1.442       .  S
C2937      N2939   1.157       .  T
C2938      N2940   1.157       .  T
C2941      C2942   1.403       .  A
C2941      C2946   1.417       .  A
C2942      C2943   1.396       .  A
C2942      H2947   1.085       .  S
C2943      C2944   1.415       .  A
C2943      C2950   1.445       .  S
C2944      C2945   1.400       .  A
C2945      C2946   1.397       .  A
C2945      H2948   1.085   1_545  S
C2946      C2949   1.444       .  S
C2949      N2951   1.157       .  T
C2950      N2952   1.157       .  T
C2953      C2954   1.404       .  A
C2953      C2958   1.417       .  A
C2954      C2955   1.402       .  A
C2954      H2959   1.085       .  S
C2955      C2956   1.414       .  A
C2955      C2962   1.445       .  S
C2956      C2957   1.399       .  A
C2957      C2958   1.397       .  A
C2957      H2960   1.085       .  S
C2958      C2961   1.444       .  S
C2961      N2963   1.157       .  T
C2962      N2964   1.157       .  T
C2965      C2966   1.407       .  A
C2965      C2970   1.417       .  A
C2966      C2967   1.403       .  A
C2966      H2971   1.084       .  S
C2967      C2968   1.418       .  A
C2967      C2974   1.444       .  S
C2968      C2969   1.409       .  A
C2969      C2970   1.408       .  A
C2969      H2972   1.085       .  S
C2970      C2973   1.444       .  S
C2973      N2975   1.157       .  T
C2974      N2976   1.157       .  T
C2977      C2978   1.409       .  A
C2977      C2982   1.414       .  A
C2978      C2979   1.409       .  A
C2978      H2983   1.085       .  S
C2979      C2980   1.416       .  A
C2979      C2986   1.444       .  S
C2980      C2981   1.402       .  A
C2981      C2982   1.397       .  A
C2981      H2984   1.085       .  S
C2982      C2985   1.441       .  S
C2985      N2987   1.157       .  T
C2986      N2988   1.157       .  T
C2989      C2990   1.409       .  A
C2989      C2994   1.419       .  A
C2990      C2991   1.411       .  A
C2990      H2995   1.084   1_455  S
C2991      C2992   1.420       .  A
C2991      C2998   1.444   1_455  S
C2992      C2993   1.406       .  A
C2993      C2994   1.398       .  A
C2993      H2996   1.085       .  S
C2994      C2997   1.444       .  S
C2997      N2999   1.157       .  T
C2998      N3000   1.157       .  T
C3001      C3002   1.408       .  A
C3001      C3006   1.417   1_455  A
C3002      C3003   1.408       .  A
C3002      H3007   1.085       .  S
C3003      C3004   1.418   1_455  A
C3003      C3010   1.444       .  S
C3004      C3005   1.406       .  A
C3005      C3006   1.403       .  A
C3005      H3008   1.085       .  S
C3006      C3009   1.445       .  S
C3009      N3011   1.157       .  T
C3010      N3012   1.157       .  T
C3013      C3014   1.406       .  A
C3013      C3018   1.414       .  A
C3014      C3015   1.404       .  A
C3014      H3019   1.085       .  S
C3015      C3016   1.417       .  A
C3015      C3022   1.443       .  S
C3016      C3017   1.404       .  A
C3017      C3018   1.395       .  A
C3017      H3020   1.085       .  S
C3018      C3021   1.443       .  S
C3021      N3023   1.157       .  T
C3022      N3024   1.157       .  T
C3025      C3026   1.409       .  A
C3025      C3030   1.416       .  A
C3026      C3027   1.399       .  A
C3026      H3031   1.085       .  S
C3027      C3028   1.411       .  A
C3027      C3034   1.443       .  S
C3028      C3029   1.410       .  A
C3029      C3030   1.410       .  A
C3029      H3032   1.085       .  S
C3030      C3033   1.443       .  S
C3033      N3035   1.157       .  T
C3034      N3036   1.157       .  T
C3037      C3038   1.408       .  A
C3037      C3042   1.420       .  A
C3038      C3039   1.400       .  A
C3038      H3043   1.082       .  S
C3039      C3040   1.418       .  A
C3039      C3046   1.445       .  S
C3040      C3041   1.410       .  A
C3041      C3042   1.410       .  A
C3041      H3044   1.084       .  S
C3042      C3045   1.443       .  S
C3045      N3047   1.157   1_565  T
C3046      N3048   1.157       .  T
C3049      C3050   1.401   1_545  A
C3049      C3054   1.421       .  A
C3050      C3051   1.403       .  A
C3050      H3055   1.085       .  S
C3051      C3052   1.420   1_565  A
C3051      C3058   1.443       .  S
C3052      C3053   1.403       .  A
C3053      C3054   1.407       .  A
C3053      H3056   1.085       .  S
C3054      C3057   1.443       .  S
C3057      N3059   1.157       .  T
C3058      N3060   1.157       .  T
C3061      C3062   1.411       .  A
C3061      C3066   1.410       .  A
C3062      C3063   1.407       .  A
C3062      H3067   1.085       .  S
C3063      C3064   1.413       .  A
C3063      C3070   1.444       .  S
C3064      C3065   1.410       .  A
C3065      C3066   1.400       .  A
C3065      H3068   1.085       .  S
C3066      C3069   1.443       .  S
C3069      N3071   1.157       .  T
C3070      N3072   1.157       .  T
C3073      C3074   1.411       .  A
C3073      C3078   1.417       .  A
C3074      C3075   1.401       .  A
C3074      H3079   1.084       .  S
C3075      C3076   1.413       .  A
C3075      C3082   1.444       .  S
C3076      C3077   1.408       .  A
C3077      C3078   1.399       .  A
C3077      H3080   1.085       .  S
C3078      C3081   1.445       .  S
C3081      N3083   1.157       .  T
C3082      N3084   1.157       .  T
C3085      C3086   1.400       .  A
C3085      C3090   1.419       .  A
C3086      C3087   1.401       .  A
C3086      H3091   1.085       .  S
C3087      C3088   1.423       .  A
C3087      C3094   1.445       .  S
C3088      C3089   1.404       .  A
C3089      C3090   1.404       .  A
C3089      H3092   1.085       .  S
C3090      C3093   1.444       .  S
C3093      N3095   1.157       .  T
C3094      N3096   1.157       .  T
C3097      C3098   1.403       .  A
C3097      C3102   1.415       .  A
C3098      C3099   1.395       .  A
C3098      H3103   1.085       .  S
C3099      C3100   1.415       .  A
C3099      C3106   1.444       .  S
C3100      C3101   1.407       .  A
C3101      C3102   1.401       .  A
C3101      H3104   1.085       .  S
C3102      C3105   1.444       .  S
C3105      N3107   1.157       .  T
C3106      N3108   1.157       .  T
C3109      C3110   1.402       .  A
C3109      C3114   1.412       .  A
C3110      C3111   1.399       .  A
C3110      H3115   1.085       .  S
C3111      C3112   1.410       .  A
C3111      C3118   1.444       .  S
C3112      C3113   1.400       .  A
C3113      C3114   1.400       .  A
C3113      H3116   1.085       .  S
C3114      C3117   1.444       .  S
C3117      N3119   1.157       .  T
C3118      N3120   1.157       .  T
C3121      C3122   1.409       .  A
C3121      C3126   1.418       .  A
C3122      C3123   1.402       .  A
C3122      H3127   1.085       .  S
C3123      C3124   1.412       .  A
C3123      C3130   1.444       .  S
C3124      C3125   1.404       .  A
C3125      C3126   1.397       .  A
C3125      H3128   1.085       .  S
C3126      C3129   1.445       .  S
C3129      N3131   1.158       .  T
C3130      N3132   1.157       .  T
C3133      C3134   1.405       .  A
C3133      C3138   1.421       .  A
C3134      C3135   1.403       .  A
C3134      H3139   1.085       .  S
C3135      C3136   1.417       .  A
C3135      C3142   1.442       .  S
C3136      C3137   1.404       .  A
C3137      C3138   1.399       .  A
C3137      H3140   1.085       .  S
C3138      C3141   1.446       .  S
C3141      N3143   1.158       .  T
C3142      N3144   1.157       .  T
C3145      C3146   1.401       .  A
C3145      C3150   1.417       .  A
C3146      C3147   1.397       .  A
C3146      H3151   1.085       .  S
C3147      C3148   1.416       .  A
C3147      C3154   1.445       .  S
C3148      C3149   1.402       .  A
C3149      C3150   1.407       .  A
C3149      H3152   1.085       .  S
C3150      C3153   1.444       .  S
C3153      N3155   1.157       .  T
C3154      N3156   1.157       .  T
C3157      C3158   1.405       .  A
C3157      C3162   1.410       .  A
C3158      C3159   1.396       .  A
C3158      H3163   1.085       .  S
C3159      C3160   1.416       .  A
C3159      C3166   1.445       .  S
C3160      C3161   1.412       .  A
C3161      C3162   1.403       .  A
C3161      H3164   1.084       .  S
C3162      C3165   1.444       .  S
C3165      N3167   1.157       .  T
C3166      N3168   1.157       .  T
C3169      C3170   1.405       .  A
C3169      C3174   1.409       .  A
C3170      C3171   1.395       .  A
C3170      H3175   1.086       .  S
C3171      C3172   1.414       .  A
C3171      C3178   1.444       .  S
C3172      C3173   1.413       .  A
C3173      C3174   1.407       .  A
C3173      H3176   1.084       .  S
C3174      C3177   1.443       .  S
C3177      N3179   1.157       .  T
C3178      N3180   1.157       .  T
C3181      C3182   1.405       .  A
C3181      C3186   1.408       .  A
C3182      C3183   1.404       .  A
C3182      H3187   1.085       .  S
C3183      C3184   1.416       .  A
C3183      C3190   1.444       .  S
C3184      C3185   1.404       .  A
C3185      C3186   1.393       .  A
C3185      H3188   1.085       .  S
C3186      C3189   1.444       .  S
C3189      N3191   1.157       .  T
C3190      N3192   1.157       .  T
C3193      C3194   1.412       .  A
C3193      C3198   1.409       .  A
C3194      C3195   1.408       .  A
C3194      H3199   1.085       .  S
C3195      C3196   1.412       .  A
C3195      C3202   1.443       .  S
C3196      C3197   1.410       .  A
C3197      C3198   1.400       .  A
C3197      H3200   1.082       .  S
C3198      C3201   1.442       .  S
C3201      N3203   1.157       .  T
C3202      N3204   1.157       .  T
C3205      C3206   1.407       .  A
C3205      C3210   1.420       .  A
C3206      C3207   1.404       .  A
C3206      H3211   1.085       .  S
C3207      C3208   1.418       .  A
C3207      C3214   1.443   1_455  S
C3208      C3209   1.407       .  A
C3209      C3210   1.401       .  A
C3209      H3212   1.085       .  S
C3210      C3213   1.446       .  S
C3213      N3215   1.158       .  T
C3214      N3216   1.157       .  T
C3217      C3218   1.411       .  A
C3217      C3222   1.412       .  A
C3218      C3219   1.405       .  A
C3218      H3223   1.084       .  S
C3219      C3220   1.412       .  A
C3219      C3226   1.443       .  S
C3220      C3221   1.412       .  A
C3221      C3222   1.403       .  A
C3221      H3224   1.083       .  S
C3222      C3225   1.444       .  S
C3225      N3227   1.157       .  T
C3226      N3228   1.157       .  T
C3229      C3230   1.402       .  A
C3229      C3234   1.419       .  A
C3230      C3231   1.397       .  A
C3230      H3235   1.085       .  S
C3231      C3232   1.414       .  A
C3231      C3238   1.446       .  S
C3232      C3233   1.402       .  A
C3233      C3234   1.408       .  A
C3233      H3236   1.085       .  S
C3234      C3237   1.443       .  S
C3237      N3239   1.157       .  T
C3238      N3240   1.157       .  T
C3241      C3242   1.401       .  A
C3241      C3246   1.410       .  A
C3242      C3243   1.399       .  A
C3242      H3247   1.085       .  S
C3243      C3244   1.413       .  A
C3243      C3250   1.444       .  S
C3244      C3245   1.405       .  A
C3245      C3246   1.403       .  A
C3245      H3248   1.085       .  S
C3246      C3249   1.444       .  S
C3249      N3251   1.157       .  T
C3250      N3252   1.157   1_655  T
C3253      C3254   1.407       .  A
C3253      C3258   1.417       .  A
C3254      C3255   1.407       .  A
C3254      H3259   1.085       .  S
C3255      C3256   1.417       .  A
C3255      C3262   1.444       .  S
C3256      C3257   1.403       .  A
C3257      C3258   1.400       .  A
C3257      H3260   1.085       .  S
C3258      C3261   1.444       .  S
C3261      N3263   1.157       .  T
C3262      N3264   1.157   1_565  T
C3265      C3266   1.402       .  A
C3265      C3270   1.418       .  A
C3266      C3267   1.395       .  A
C3266      H3271   1.085       .  S
C3267      C3268   1.414       .  A
C3267      C3274   1.444       .  S
C3268      C3269   1.402       .  A
C3269      C3270   1.398       .  A
C3269      H3272   1.085       .  S
C3270      C3273   1.446       .  S
C3273      N3275   1.158       .  T
C3274      N3276   1.157       .  T
C3277      C3278   1.414       .  A
C3277      C3282   1.414       .  A
C3278      C3279   1.407       .  A
C3278      H3283   1.084       .  S
C3279      C3280   1.409       .  A
C3279      C3286   1.444       .  S
C3280      C3281   1.406       .  A
C3281      C3282   1.397       .  A
C3281      H3284   1.085       .  S
C3282      C3285   1.444       .  S
C3285      N3287   1.157       .  T
C3286      N3288   1.157       .  T
C3289      C3290   1.408       .  A
C3289      C3294   1.418       .  A
C3290      C3291   1.405       .  A
C3290      H3295   1.085       .  S
C3291      C3292   1.416       .  A
C3291      C3298   1.444       .  S
C3292      C3293   1.406       .  A
C3293      C3294   1.402       .  A
C3293      H3296   1.084       .  S
C3294      C3297   1.445       .  S
C3297      N3299   1.157       .  T
C3298      N3300   1.157       .  T
C3301      C3302   1.410       .  A
C3301      C3306   1.415       .  A
C3302      C3303   1.399       .  A
C3302      H3307   1.085       .  S
C3303      C3304   1.408       .  A
C3303      C3310   1.444       .  S
C3304      C3305   1.401       .  A
C3305      C3306   1.391       .  A
C3305      H3308   1.086       .  S
C3306      C3309   1.445       .  S
C3309      N3311   1.157       .  T
C3310      N3312   1.157       .  T
C3313      C3314   1.418       .  A
C3313      C3318   1.414       .  A
C3314      C3315   1.408       .  A
C3314      H3319   1.084       .  S
C3315      C3316   1.405       .  A
C3315      C3322   1.444       .  S
C3316      C3317   1.404       .  A
C3317      C3318   1.392       .  A
C3317      H3320   1.086       .  S
C3318      C3321   1.444       .  S
C3321      N3323   1.157       .  T
C3322      N3324   1.158       .  T
C3325      C3326   1.410       .  A
C3325      C3330   1.414       .  A
C3326      C3327   1.399       .  A
C3326      H3331   1.085       .  S
C3327      C3328   1.408       .  A
C3327      C3334   1.444       .  S
C3328      C3329   1.408       .  A
C3329      C3330   1.405       .  A
C3329      H3332   1.085       .  S
C3330      C3333   1.445       .  S
C3333      N3335   1.158       .  T
C3334      N3336   1.157       .  T
C3337      C3338   1.403       .  A
C3337      C3342   1.414       .  A
C3338      C3339   1.398       .  A
C3338      H3343   1.085       .  S
C3339      C3340   1.415       .  A
C3339      C3346   1.444       .  S
C3340      C3341   1.406       .  A
C3341      C3342   1.403       .  A
C3341      H3344   1.085       .  S
C3342      C3345   1.442       .  S
C3345      N3347   1.157       .  T
C3346      N3348   1.157   1_545  T
C3349      C3350   1.408       .  A
C3349      C3354   1.416       .  A
C3350      C3351   1.403       .  A
C3350      H3355   1.085       .  S
C3351      C3352   1.413       .  A
C3351      C3358   1.443       .  S
C3352      C3353   1.407       .  A
C3353      C3354   1.408       .  A
C3353      H3356   1.085       .  S
C3354      C3357   1.443       .  S
C3357      N3359   1.157       .  T
C3358      N3360   1.157       .  T
C3361      C3362   1.408       .  A
C3361      C3366   1.418       .  A
C3362      C3363   1.405       .  A
C3362      H3367   1.084       .  S
C3363      C3364   1.419       .  A
C3363      C3370   1.445       .  S
C3364      C3365   1.408       .  A
C3365      C3366   1.406       .  A
C3365      H3368   1.085       .  S
C3366      C3369   1.443       .  S
C3369      N3371   1.157       .  T
C3370      N3372   1.158       .  T
C3373      C3374   1.410       .  A
C3373      C3378   1.413       .  A
C3374      C3375   1.401       .  A
C3374      H3379   1.085       .  S
C3375      C3376   1.410       .  A
C3375      C3382   1.444       .  S
C3376      C3377   1.408       .  A
C3377      C3378   1.405       .  A
C3377      H3380   1.085       .  S
C3378      C3381   1.443       .  S
C3381      N3383   1.157   1_655  T
C3382      N3384   1.157       .  T
C3385      C3386   1.402       .  A
C3385      C3390   1.409       .  A
C3386      C3387   1.401       .  A
C3386      H3391   1.085       .  S
C3387      C3388   1.414       .  A
C3387      C3394   1.442       .  S
C3388      C3389   1.406       .  A
C3389      C3390   1.396       .  A
C3389      H3392   1.085       .  S
C3390      C3393   1.446       .  S
C3393      N3395   1.157       .  T
C3394      N3396   1.157       .  T
C3397      C3398   1.399       .  A
C3397      C3402   1.413       .  A
C3398      C3399   1.402       .  A
C3398      H3403   1.085       .  S
C3399      C3400   1.417       .  A
C3399      C3406   1.443       .  S
C3400      C3401   1.402       .  A
C3401      C3402   1.397       .  A
C3401      H3404   1.085       .  S
C3402      C3405   1.446   1_545  S
C3405      N3407   1.157       .  T
C3406      N3408   1.157       .  T
C3409      C3410   1.406       .  A
C3409      C3414   1.411       .  A
C3410      C3411   1.403       .  A
C3410      H3415   1.085       .  S
C3411      C3412   1.414       .  A
C3411      C3418   1.444       .  S
C3412      C3413   1.408       .  A
C3413      C3414   1.402       .  A
C3413      H3416   1.085       .  S
C3414      C3417   1.444       .  S
C3417      N3419   1.157       .  T
C3418      N3420   1.157       .  T
C3421      C3422   1.405       .  A
C3421      C3426   1.419       .  A
C3422      C3423   1.398       .  A
C3422      H3427   1.085       .  S
C3423      C3424   1.423   1_565  A
C3423      C3430   1.446       .  S
C3424      C3425   1.408       .  A
C3425      C3426   1.408   1_545  A
C3425      H3428   1.084       .  S
C3426      C3429   1.443       .  S
C3429      N3431   1.157       .  T
C3430      N3432   1.158   1_565  T
C3433      C3434   1.400       .  A
C3433      C3438   1.418       .  A
C3434      C3435   1.400       .  A
C3434      H3439   1.085       .  S
C3435      C3436   1.419       .  A
C3435      C3442   1.443       .  S
C3436      C3437   1.402       .  A
C3437      C3438   1.403       .  A
C3437      H3440   1.085       .  S
C3438      C3441   1.443       .  S
C3441      N3443   1.157       .  T
C3442      N3444   1.157       .  T
C3445      C3446   1.408       .  A
C3445      C3450   1.417       .  A
C3446      C3447   1.408       .  A
C3446      H3451   1.084       .  S
C3447      C3448   1.415       .  A
C3447      C3454   1.443       .  S
C3448      C3449   1.402       .  A
C3449      C3450   1.399       .  A
C3449      H3452   1.085       .  S
C3450      C3453   1.442       .  S
C3453      N3455   1.156       .  T
C3454      N3456   1.157       .  T
C3457      C3458   1.403       .  A
C3457      C3462   1.412       .  A
C3458      C3459   1.392       .  A
C3458      H3463   1.086       .  S
C3459      C3460   1.415       .  A
C3459      C3466   1.444       .  S
C3460      C3461   1.416       .  A
C3461      C3462   1.413       .  A
C3461      H3464   1.084       .  S
C3462      C3465   1.444       .  S
C3465      N3467   1.158       .  T
C3466      N3468   1.157       .  T
C3469      C3470   1.401       .  A
C3469      C3474   1.411       .  A
C3470      C3471   1.398       .  A
C3470      H3475   1.085       .  S
C3471      C3472   1.415       .  A
C3471      C3478   1.441       .  S
C3472      C3473   1.409       .  A
C3473      C3474   1.399       .  A
C3473      H3476   1.085       .  S
C3474      C3477   1.446       .  S
C3477      N3479   1.157       .  T
C3478      N3480   1.157       .  T
C3481      C3482   1.410       .  A
C3481      C3486   1.415       .  A
C3482      C3483   1.410       .  A
C3482      H3487   1.084       .  S
C3483      C3484   1.418       .  A
C3483      C3490   1.444       .  S
C3484      C3485   1.408       .  A
C3485      C3486   1.398       .  A
C3485      H3488   1.085       .  S
C3486      C3489   1.443       .  S
C3489      N3491   1.157       .  T
C3490      N3492   1.158       .  T
C3493      C3494   1.405       .  A
C3493      C3498   1.418       .  A
C3494      C3495   1.399       .  A
C3494      H3499   1.085       .  S
C3495      C3496   1.414       .  A
C3495      C3502   1.446       .  S
C3496      C3497   1.401       .  A
C3497      C3498   1.404       .  A
C3497      H3500   1.085       .  S
C3498      C3501   1.443       .  S
C3501      N3503   1.157       .  T
C3502      N3504   1.158   1_565  T
C3505      C3506   1.401       .  A
C3505      C3510   1.414       .  A
C3506      C3507   1.402       .  A
C3506      H3511   1.084       .  S
C3507      C3508   1.424       .  A
C3507      C3514   1.445       .  S
C3508      C3509   1.406       .  A
C3509      C3510   1.398       .  A
C3509      H3512   1.085       .  S
C3510      C3513   1.444       .  S
C3513      N3515   1.157       .  T
C3514      N3516   1.158       .  T
C3517      C3518   1.405       .  A
C3517      C3522   1.416       .  A
C3518      C3519   1.399       .  A
C3518      H3523   1.085       .  S
C3519      C3520   1.416       .  A
C3519      C3526   1.444       .  S
C3520      C3521   1.407       .  A
C3521      C3522   1.404       .  A
C3521      H3524   1.085       .  S
C3522      C3525   1.444       .  S
C3525      N3527   1.157       .  T
C3526      N3528   1.157       .  T
C3529      C3530   1.406       .  A
C3529      C3534   1.417       .  A
C3530      C3531   1.403       .  A
C3530      H3535   1.085       .  S
C3531      C3532   1.418       .  A
C3531      C3538   1.444       .  S
C3532      C3533   1.409       .  A
C3533      C3534   1.409       .  A
C3533      H3536   1.085   1_655  S
C3534      C3537   1.443   1_655  S
C3537      N3539   1.157       .  T
C3538      N3540   1.157       .  T
C3541      C3542   1.401       .  A
C3541      C3546   1.415       .  A
C3542      C3543   1.397       .  A
C3542      H3547   1.085       .  S
C3543      C3544   1.418       .  A
C3543      C3550   1.444       .  S
C3544      C3545   1.406       .  A
C3545      C3546   1.396       .  A
C3545      H3548   1.085       .  S
C3546      C3549   1.446       .  S
C3549      N3551   1.157       .  T
C3550      N3552   1.157       .  T
C3553      C3554   1.409       .  A
C3553      C3558   1.409       .  A
C3554      C3555   1.402       .  A
C3554      H3559   1.085       .  S
C3555      C3556   1.412       .  A
C3555      C3562   1.444       .  S
C3556      C3557   1.409       .  A
C3557      C3558   1.398       .  A
C3557      H3560   1.085       .  S
C3558      C3561   1.443       .  S
C3561      N3563   1.157       .  T
C3562      N3564   1.157       .  T
C3565      C3566   1.402       .  A
C3565      C3570   1.410       .  A
C3566      C3567   1.401       .  A
C3566      H3571   1.085       .  S
C3567      C3568   1.417       .  A
C3567      C3574   1.443       .  S
C3568      C3569   1.405       .  A
C3569      C3570   1.396       .  A
C3569      H3572   1.085       .  S
C3570      C3573   1.444       .  S
C3573      N3575   1.157       .  T
C3574      N3576   1.157       .  T
C3577      C3578   1.403       .  A
C3577      C3582   1.416       .  A
C3578      C3579   1.405       .  A
C3578      H3583   1.085       .  S
C3579      C3580   1.416       .  A
C3579      C3586   1.444       .  S
C3580      C3581   1.401       .  A
C3581      C3582   1.401       .  A
C3581      H3584   1.085       .  S
C3582      C3585   1.444       .  S
C3585      N3587   1.157       .  T
C3586      N3588   1.157       .  T
C3589      C3590   1.409       .  A
C3589      C3594   1.418       .  A
C3590      C3591   1.403   1_455  A
C3590      H3595   1.083       .  S
C3591      C3592   1.421       .  A
C3591      C3598   1.445       .  S
C3592      C3593   1.411       .  A
C3593      C3594   1.410   1_655  A
C3593      H3596   1.084       .  S
C3594      C3597   1.443       .  S
C3597      N3599   1.157       .  T
C3598      N3600   1.157       .  T
C3601      C3602   1.406       .  A
C3601      C3606   1.411       .  A
C3602      C3603   1.400       .  A
C3602      H3607   1.085       .  S
C3603      C3604   1.407       .  A
C3603      C3610   1.444       .  S
C3604      C3605   1.402       .  A
C3605      C3606   1.401       .  A
C3605      H3608   1.085       .  S
C3606      C3609   1.442       .  S
C3609      N3611   1.157       .  T
C3610      N3612   1.157       .  T
C3613      C3614   1.402       .  A
C3613      C3618   1.419       .  A
C3614      C3615   1.405       .  A
C3614      H3619   1.085       .  S
C3615      C3616   1.418       .  A
C3615      C3622   1.444       .  S
C3616      C3617   1.400       .  A
C3617      C3618   1.402       .  A
C3617      H3620   1.085       .  S
C3618      C3621   1.444       .  S
C3621      N3623   1.157       .  T
C3622      N3624   1.157       .  T
C3625      C3626   1.405       .  A
C3625      C3630   1.416       .  A
C3626      C3627   1.402       .  A
C3626      H3631   1.085       .  S
C3627      C3628   1.421       .  A
C3627      C3634   1.445       .  S
C3628      C3629   1.403       .  A
C3629      C3630   1.396       .  A
C3629      H3632   1.085       .  S
C3630      C3633   1.444       .  S
C3633      N3635   1.157       .  T
C3634      N3636   1.157       .  T
C3637      C3638   1.410       .  A
C3637      C3642   1.412       .  A
C3638      C3639   1.403       .  A
C3638      H3643   1.085       .  S
C3639      C3640   1.410       .  A
C3639      C3646   1.444       .  S
C3640      C3641   1.407       .  A
C3641      C3642   1.399       .  A
C3641      H3644   1.085       .  S
C3642      C3645   1.444       .  S
C3645      N3647   1.157       .  T
C3646      N3648   1.157       .  T
C3649      C3650   1.400       .  A
C3649      C3654   1.418       .  A
C3650      C3651   1.399       .  A
C3650      H3655   1.085       .  S
C3651      C3652   1.420       .  A
C3651      C3658   1.442       .  S
C3652      C3653   1.406       .  A
C3653      C3654   1.406       .  A
C3653      H3656   1.085       .  S
C3654      C3657   1.443       .  S
C3657      N3659   1.157       .  T
C3658      N3660   1.156       .  T
C3661      C3662   1.410       .  A
C3661      C3666   1.420       .  A
C3662      C3663   1.410       .  A
C3662      H3667   1.084       .  S
C3663      C3664   1.418       .  A
C3663      C3670   1.443   1_545  S
C3664      C3665   1.408       .  A
C3665      C3666   1.404       .  A
C3665      H3668   1.085       .  S
C3666      C3669   1.445       .  S
C3669      N3671   1.158       .  T
C3670      N3672   1.157       .  T
