geometry optimzed in LAMMPS
_audit_creation_date              2020-12-01 
_audit_creation_method            'lammps2cif' 
_symmetry_space_group_name_H-M    'P1' 
_symmetry_Int_Tables_number       1 
_symmetry_cell_setting            triclinic 
loop_ 
_symmetry_equiv_pos_as_xyz 
  x,y,z 
_cell_length_a                    85.20109087 
_cell_length_b                    85.07931917552203 
_cell_length_c                    35.205762763514706 
_cell_angle_alpha                 89.75860513899477 
_cell_angle_beta                  89.90011051473982 
_cell_angle_gamma                 90.12379709040835 
loop_ 
_atom_site_label 
_atom_site_type_symbol 
_atom_site_fract_x 
_atom_site_fract_y 
_atom_site_fract_z 
_atom_site_charge 
O1          O  0.38372797  0.22488606  0.05208338    -0.82300
C2          C  0.39263167  0.25850486  0.91497685     0.97100
O3          O  0.37998745  0.25207542  0.92578277    -0.71400
O4          O  0.38262035  0.22229118  0.94146794    -0.75000
Al5        Al  0.37460150  0.23953673  0.96911164     1.49000
C6          C  0.38789335  0.20990321  0.95621272     0.92300
O7          O  0.42027807  0.22821722  0.99023086    -0.81200
O8          O  0.40098146  0.26373125  0.04657560    -0.74800
Al9        Al  0.40149866  0.22727800  0.01988408     1.90100
O10         O  0.42282674  0.25388616  0.99283131    -0.73800
O11         O  0.38257631  0.27388121  0.99096221    -0.73700
O12         O  0.40332965  0.26162019  0.93854444    -0.79300
O13         O  0.36391910  0.25626571  0.99297911    -0.77500
O14         O  0.39252391  0.24286790  0.99370987    -1.13700
O15         O  0.36564191  0.22629106  0.00773717    -0.72900
C16         C  0.36971396  0.22288454  0.04134676     0.97900
C17         C  0.42865210  0.24044167  0.98664653     0.94300
Al18       Al  0.40164562  0.26173072  0.99239715     1.55600
O19         O  0.39442909  0.21037390  0.98828709    -0.77500
C20         C  0.36823498  0.27038311  0.99477574     0.98400
C21         C  0.40727013  0.25405472  0.06919482     0.93300
O22         O  0.41044766  0.24028847  0.05839316    -0.82800
O23         O  0.40934282  0.24420510  0.42855565    -0.82300
C24         C  0.38956783  0.26681156  0.56720295     0.97100
O25         O  0.40145668  0.26812902  0.54588202    -0.71400
O26         O  0.42168143  0.26001634  0.49292964    -0.75000
Al27       Al  0.40052662  0.26744794  0.49168227     1.49000
C28         C  0.42769532  0.24693041  0.50154060     0.92300
O29         O  0.39348752  0.21693054  0.50818510    -0.81200
O30         O  0.36503227  0.23039609  0.48178917    -0.74800
Al31       Al  0.40078371  0.23227392  0.47085018     1.90100
O32         O  0.38086852  0.23157883  0.54924870    -0.73800
O33         O  0.36305294  0.26165763  0.48335233    -0.73700
O34         O  0.37674724  0.26165354  0.55411645    -0.79300
O35         O  0.38141401  0.27947955  0.49023782    -0.77500
O36         O  0.39140661  0.24869122  0.49234059    -1.13700
O37         O  0.40030652  0.26810104  0.43796310    -0.72900
C38         C  0.40583777  0.25777203  0.41602305     0.97900
C39         C  0.38629214  0.21846838  0.53954185     0.94300
Al40       Al  0.37293388  0.24650162  0.51505701     1.55600
O41         O  0.41950763  0.23455662  0.50023456    -0.77500
C42         C  0.36732522  0.27588259  0.48284939     0.98400
C43         C  0.36983861  0.22477480  0.45069843     0.93300
O44         O  0.38345366  0.22790389  0.43882309    -0.82800
O45         O  0.59171883  0.22892762  0.06341372    -0.82300
C46         C  0.61109981  0.25090713  0.92360378     0.97100
O47         O  0.59953178  0.25286532  0.94570783    -0.71400
O48         O  0.57927438  0.24458002  0.99963396    -0.75000
Al49       Al  0.60066699  0.25192676  0.00005094     1.49000
C50         C  0.57317736  0.23139417  0.99209208     0.92300
O51         O  0.60662700  0.20108250  0.98684575    -0.81200
O52         O  0.63603245  0.21514078  0.01164595    -0.74800
Al53       Al  0.60005557  0.21686362  0.02231716     1.90100
O54         O  0.61998399  0.21426521  0.94417145    -0.73800
O55         O  0.63839527  0.24624502  0.00446512    -0.73700
O56         O  0.62352740  0.24444688  0.93544868    -0.79300
O57         O  0.61980297  0.26382064  0.00004975    -0.77500
O58         O  0.60959816  0.23299680  0.99946637    -1.13700
O59         O  0.60112979  0.25269941  0.05452174    -0.72900
C60         C  0.59526072  0.24233854  0.07625361     0.97900
C61         C  0.61358905  0.20169146  0.95519250     0.94300
Al62       Al  0.62792351  0.23027757  0.97606463     1.55600
O63         O  0.58144222  0.21911391  0.99310904    -0.77500
C64         C  0.63408441  0.26043733  0.00492076     0.98400
C65         C  0.63115598  0.20989998  0.04320229     0.93300
O66         O  0.61736208  0.21267489  0.05418786    -0.82800
O67         O  0.61953286  0.22615937  0.45655776    -0.82300
C68         C  0.60717863  0.26650541  0.57907049     0.97100
O69         O  0.62066830  0.26168453  0.56959921    -0.71400
O70         O  0.61914402  0.23129606  0.56646535    -0.75000
Al71       Al  0.62688354  0.24648796  0.53242703     1.49000
C72         C  0.61508799  0.21768268  0.55685165     0.92300
O73         O  0.58188713  0.23157813  0.51288116    -0.81200
O74         O  0.60120748  0.26470978  0.44734857    -0.74800
Al75       Al  0.60129091  0.22978828  0.48583644     1.90100
O76         O  0.57834609  0.25649145  0.49947130    -0.73800
O77         O  0.61763869  0.27870761  0.50220779    -0.73700
O78         O  0.59621140  0.26711765  0.55494678    -0.79300
O79         O  0.63673384  0.26163829  0.50143728    -0.77500
O80         O  0.60913347  0.24715847  0.50647819    -1.13700
O81         O  0.63686968  0.23110397  0.50092859    -0.72900
C82         C  0.63336089  0.22527325  0.46907958     0.97900
C83         C  0.57286160  0.24328919  0.50964167     0.94300
Al84       Al  0.59912447  0.26534383  0.50130986     1.55600
O85         O  0.60865355  0.21541122  0.52492886    -0.77500
C86         C  0.63207184  0.27557932  0.49820056     0.98400
C87         C  0.59646776  0.25349513  0.42673845     0.93300
O88         O  0.59300263  0.24029461  0.44150721    -0.82800
O89         O  0.21348857  0.38319561  0.94885821    -0.82300
C90         C  0.25119388  0.39458936  0.07789723     0.97100
O91         O  0.24408365  0.38197996  0.06987997    -0.71400
O92         O  0.21361246  0.38433903  0.05940060    -0.75000
Al93       Al  0.23028874  0.37583149  0.02985492     1.49000
C94         C  0.20095836  0.38953482  0.04582515     0.92300
O95         O  0.21842897  0.42146924  0.00250379    -0.81200
O96         O  0.25260428  0.40062944  0.94496533    -0.74800
Al97       Al  0.21677067  0.40170416  0.97729644     1.90100
O98         O  0.24402799  0.42351822  0.99672497    -0.73800
O99         O  0.26403195  0.38323473  0.00177851    -0.73700
O100        O  0.25316168  0.40517888  0.05308538    -0.79300
O101        O  0.24629731  0.36470454  0.00431241    -0.77500
O102        O  0.23295870  0.39330746  0.00238949    -1.13700
O103        O  0.21616184  0.36601173  0.99512973    -0.72900
C104        C  0.21194370  0.36941619  0.96172046     0.97900
C105        C  0.23073306  0.42982178  0.00176610     0.94300
Al106      Al  0.25184654  0.40236598  0.99940897     1.55600
O107        O  0.20082341  0.39562486  0.01306712    -0.77500
C108        C  0.26036092  0.36885265  0.00001324     0.98400
C109        C  0.24238082  0.40646539  0.92307786     0.93300
O110        O  0.22876229  0.40939045  0.93529418    -0.82800
O111        O  0.22753849  0.41229341  0.56216172    -0.82300
C112        C  0.25078769  0.39944020  0.41949372     0.97100
O113        O  0.25159727  0.41036542  0.44363420    -0.71400
O114        O  0.24256816  0.42810816  0.50121459    -0.75000
Al115      Al  0.25097385  0.40711107  0.49719711     1.49000
C116        C  0.22913885  0.43368196  0.49396294     0.92300
O117        O  0.20073205  0.39875725  0.47983348    -0.81200
O118        O  0.21550331  0.36968618  0.50039932    -0.74800
Al119      Al  0.21585694  0.40503684  0.51828378     1.90100
O120        O  0.21563968  0.38815866  0.43606493    -0.73800
O121        O  0.24659175  0.36939810  0.49718239    -0.73700
O122        O  0.24584465  0.38594229  0.42923504    -0.79300
O123        O  0.26390131  0.38839724  0.49369890    -0.77500
O124        O  0.23257002  0.39725227  0.49463972    -1.13700
O125        O  0.25173433  0.40462988  0.55064911    -0.72900
C126        C  0.24123249  0.40887148  0.57382821     0.97900
C127        C  0.20246465  0.39301745  0.44691504     0.94300
Al128      Al  0.23105138  0.37970578  0.46806061     1.55600
O129        O  0.21737679  0.42469630  0.49280797    -0.77500
C130        C  0.26066878  0.37396612  0.49829302     0.98400
C131        C  0.20962691  0.37316856  0.53234569     0.93300
O132        O  0.21210253  0.38649972  0.54651517    -0.82800
O133        O  0.21791978  0.62172059  0.03557812    -0.82300
C134        C  0.25606274  0.61226075  0.90721711     0.97100
O135        O  0.25299361  0.62542498  0.92190212    -0.71400
O136        O  0.22250095  0.62481582  0.92614407    -0.75000
Al137      Al  0.23822951  0.63046274  0.96082972     1.49000
C138        C  0.20897069  0.62002744  0.93493796     0.92300
O139        O  0.22121563  0.58481067  0.97554024    -0.81200
O140        O  0.25657847  0.60024724  0.03674441    -0.74800
Al141      Al  0.22079818  0.60399784  0.00380233     1.90100
O142        O  0.24631768  0.58027936  0.98164206    -0.73800
O143        O  0.27016276  0.61851316  0.98518152    -0.73700
O144        O  0.25652247  0.60005211  0.92794329    -0.79300
O145        O  0.25385718  0.63800292  0.99381798    -0.77500
O146        O  0.23822059  0.61162140  0.98252883    -1.13700
O147        O  0.22351530  0.64004557  0.99411051    -0.72900
C148        C  0.21767798  0.63591987  0.02544948     0.97900
C149        C  0.23256519  0.57529020  0.97587867     0.94300
Al150      Al  0.25598463  0.60059415  0.98271824     1.55600
O151        O  0.20665162  0.61256047  0.96575327    -0.77500
C152        C  0.26750148  0.63245172  0.99598154     0.98400
C153        C  0.24545481  0.59635833  0.05879282     0.93300
O154        O  0.23158067  0.59470790  0.04629933    -0.82800
O155        O  0.21396785  0.62515968  0.54065780    -0.82300
C156        C  0.24700298  0.61622242  0.40410876     0.97100
O157        O  0.24188597  0.62931215  0.41582707    -0.71400
O158        O  0.21209656  0.62577105  0.43020718    -0.75000
Al159      Al  0.22878915  0.63433345  0.45862697     1.49000
C160        C  0.19966784  0.62026184  0.44438337     0.92300
O161        O  0.21817116  0.58790757  0.48305797    -0.81200
O162        O  0.25381317  0.60883916  0.53485096    -0.74800
Al163      Al  0.21691724  0.60731061  0.51015704     1.90100
O164        O  0.24380257  0.58627881  0.48480130    -0.73800
O165        O  0.26295027  0.62675128  0.47709700    -0.73700
O166        O  0.24989348  0.60526324  0.42740437    -0.79300
O167        O  0.24532369  0.64518346  0.48398879    -0.77500
O168        O  0.23222594  0.61639529  0.48335681    -1.13700
O169        O  0.21438428  0.64296535  0.49557618    -0.72900
C170        C  0.21011113  0.63849369  0.52834852     0.97900
C171        C  0.23054571  0.57979855  0.48091068     0.94300
Al172      Al  0.25109445  0.60750450  0.48119511     1.55600
O173        O  0.19990401  0.61360641  0.47664630    -0.77500
C174        C  0.25952265  0.64097301  0.48329434     0.98400
C175        C  0.24426142  0.60361071  0.55942055     0.93300
O176        O  0.23040784  0.59981879  0.55004276    -0.82800
O177        O  0.78383133  0.62159023  0.95647347    -0.82300
C178        C  0.74177322  0.61555914  0.07957733     0.97100
O179        O  0.74849571  0.62824494  0.06955521    -0.71400
O180        O  0.77889288  0.62582000  0.06361391    -0.75000
Al181      Al  0.76332250  0.63304300  0.02962763     1.49000
C182        C  0.79133137  0.61854559  0.05603594     0.92300
O183        O  0.77387666  0.58567517  0.01608452    -0.81200
O184        O  0.74305894  0.60650778  0.94791724    -0.74800
Al185      Al  0.77776448  0.60446659  0.98742468     1.90100
O186        O  0.74880141  0.58448030  0.00360583    -0.73800
O187        O  0.73020482  0.62503320  0.00039662    -0.73700
O188        O  0.73978831  0.60453464  0.05602309    -0.79300
O189        O  0.74807124  0.64333645  0.99917842    -0.77500
O190        O  0.76115379  0.61454657  0.00652403    -1.13700
O191        O  0.77868128  0.64127670  0.99453957    -0.72900
C192        C  0.78513457  0.63591210  0.96491204     0.97900
C193        C  0.76129935  0.57785418  0.01414000     0.94300
Al194      Al  0.74210161  0.60590463  0.00230610     1.55600
O195        O  0.79240002  0.61058965  0.02599100    -0.77500
C196        C  0.73397021  0.63922557  0.99556105     0.98400
C197        C  0.75394808  0.60040426  0.92836451     0.93300
O198        O  0.76683527  0.59662535  0.94380293    -0.82800
O199        O  0.76187226  0.59647867  0.56196531    -0.82300
C200        C  0.73607327  0.61638446  0.42586578     0.97100
O201        O  0.73532120  0.60436770  0.44712263    -0.71400
O202        O  0.74454885  0.58377984  0.49939215    -0.75000
Al203      Al  0.73730171  0.60516334  0.50140363     1.49000
C204        C  0.75755883  0.57767473  0.49049805     0.92300
O205        O  0.78732056  0.61145559  0.47858690    -0.81200
O206        O  0.77517379  0.64031867  0.50616914    -0.74800
Al207      Al  0.77284693  0.60465979  0.51815934     1.90100
O208        O  0.77199431  0.62433082  0.43919724    -0.73800
O209        O  0.74405341  0.64250268  0.50927958    -0.73700
O210        O  0.74187734  0.62906073  0.43829955    -0.79300
O211        O  0.72562402  0.62459349  0.50447366    -0.77500
O212        O  0.75612722  0.61409084  0.49839070    -1.13700
O213        O  0.73778357  0.60530307  0.55541134    -0.72900
C214        C  0.74868661  0.60008402  0.57625182     0.97900
C215        C  0.78504217  0.61821756  0.44689390     0.94300
Al216      Al  0.75809970  0.63254477  0.47530000     1.55600
O217        O  0.76983335  0.58595785  0.48987676    -0.77500
C218        C  0.72980519  0.63854589  0.51201063     0.98400
C219        C  0.78116431  0.63551454  0.53691765     0.93300
O220        O  0.77800663  0.62197076  0.54918693    -0.82800
O221        O  0.76223065  0.41385532  0.93649316    -0.82300
C222        C  0.73411551  0.39752178  0.07044798     0.97100
O223        O  0.73382877  0.40875920  0.04685631    -0.71400
O224        O  0.74561139  0.42757175  0.99448414    -0.75000
Al225      Al  0.73627453  0.40682250  0.99333545     1.49000
C226        C  0.75882362  0.43244276  0.00613550     0.92300
O227        O  0.78557411  0.39594797  0.01916211    -0.81200
O228        O  0.76989570  0.36843014  0.99116300    -0.74800
Al229      Al  0.77189343  0.40429481  0.98016765     1.90100
O230        O  0.76914061  0.38478927  0.05872879    -0.73800
O231        O  0.73927314  0.36911317  0.99035401    -0.73700
O232        O  0.73872019  0.38400497  0.06035741    -0.79300
O233        O  0.72251308  0.38846270  0.99183606    -0.77500
O234        O  0.75416657  0.39636155  0.99885694    -1.13700
O235        O  0.73767991  0.40582481  0.93898052    -0.72900
C236        C  0.74926266  0.41111158  0.92015686     0.97900
C237        C  0.78280991  0.38921826  0.05059134     0.94300
Al238      Al  0.75422976  0.37808357  0.02307778     1.55600
O239        O  0.77017729  0.42300496  0.00922968    -0.77500
C240        C  0.72541540  0.37397930  0.98738773     0.98400
C241        C  0.77611956  0.37259862  0.96000432     0.93300
O242        O  0.77543457  0.38669357  0.94904061    -0.82800
O243        O  0.78668872  0.38902770  0.55096483    -0.82300
C244        C  0.75178826  0.39540376  0.41481953     0.97100
O245        O  0.75823535  0.38309257  0.42754822    -0.71400
O246        O  0.78794490  0.38789316  0.43976720    -0.75000
Al247      Al  0.77177760  0.37907900  0.46972854     1.49000
C248        C  0.80034736  0.39373828  0.45302568     0.92300
O249        O  0.78184660  0.42532813  0.48982480    -0.81200
O250        O  0.74676189  0.40520859  0.54500663    -0.74800
Al251      Al  0.78338430  0.40658249  0.51884153     1.90100
O252        O  0.75617478  0.42715861  0.49082822    -0.73800
O253        O  0.73756778  0.38609500  0.49038963    -0.73700
O254        O  0.74920115  0.40688828  0.43661790    -0.79300
O255        O  0.75583889  0.36819536  0.49672615    -0.77500
O256        O  0.76804594  0.39711827  0.49316971    -1.13700
O257        O  0.78652831  0.37108173  0.50659498    -0.72900
C258        C  0.79051848  0.37557686  0.53941433     0.97900
C259        C  0.76953816  0.43336690  0.48572692     0.94300
Al260      Al  0.74898681  0.40568228  0.49100919     1.55600
O261        O  0.80029779  0.40018822  0.48537163    -0.77500
C262        C  0.74153360  0.37198514  0.49657135     0.98400
C263        C  0.75634831  0.41078360  0.56878991     0.93300
O264        O  0.77006475  0.41463291  0.55839109    -0.82800
O265        O  0.40122144  0.77500349  0.08166295    -0.82300
C266        C  0.38290385  0.74833770  0.94604566     0.97100
O267        O  0.39481446  0.74805782  0.96746342    -0.71400
O268        O  0.41458506  0.75811575  0.01971205    -0.75000
Al269      Al  0.39368923  0.74991701  0.02152767     1.49000
C270        C  0.42034778  0.77123406  0.01021938     0.92300
O271        O  0.38493706  0.79966705  0.99783315    -0.81200
O272        O  0.35667893  0.78540368  0.02739416    -0.74800
Al273      Al  0.39266648  0.78556281  0.03749891     1.90100
O274        O  0.37233112  0.78370356  0.95964093    -0.73800
O275        O  0.35620727  0.75421905  0.02976178    -0.73700
O276        O  0.36986999  0.75332492  0.95840914    -0.79300
O277        O  0.37508251  0.73699672  0.02430431    -0.77500
O278        O  0.38391106  0.76828164  0.01829076    -1.13700
O279        O  0.39315695  0.75055198  0.07531653    -0.72900
C280        C  0.39780713  0.76171448  0.09611252     0.97900
C281        C  0.37740168  0.79720399  0.96730664     0.94300
Al282      Al  0.36530596  0.76908317  0.99583798     1.55600
O283        O  0.41176456  0.78331468  0.00919777    -0.77500
C284        C  0.36095636  0.74021494  0.03211827     0.98400
C285        C  0.36138694  0.79211978  0.05725266     0.93300
O286        O  0.37521981  0.79011879  0.06864935    -0.82800
O287        O  0.37672951  0.79379247  0.47307236    -0.82300
C288        C  0.38554935  0.75453628  0.60026298     0.97100
O289        O  0.37275571  0.76103139  0.59094920    -0.71400
O290        O  0.37612326  0.79138881  0.58378699    -0.75000
Al291      Al  0.36761094  0.77582935  0.55157668     1.49000
C292        C  0.38159108  0.80431967  0.57238563     0.92300
O293        O  0.41351864  0.78735604  0.53102206    -0.81200
O294        O  0.39283444  0.75456507  0.46802047    -0.74800
Al295      Al  0.39448889  0.78981603  0.50336480     1.90100
O296        O  0.41563878  0.76202059  0.52102121    -0.73800
O297        O  0.37468348  0.74244650  0.52260887    -0.73700
O298        O  0.39636039  0.75269702  0.57605097    -0.79300
O299        O  0.35671445  0.76070950  0.52280826    -0.77500
O300        O  0.38540298  0.77337159  0.52586762    -1.13700
O301        O  0.35875709  0.79115092  0.51736162    -0.72900
C302        C  0.36284042  0.79568905  0.48450054     0.97900
C303        C  0.42194889  0.77520507  0.52816001     0.94300
Al304      Al  0.39415800  0.75444507  0.52232831     1.55600
O305        O  0.38799215  0.80531183  0.54004746    -0.77500
C306        C  0.36050924  0.74656458  0.51840918     0.98400
C307        C  0.39900155  0.76505761  0.44720275     0.93300
O308        O  0.40261840  0.77829192  0.46096160    -0.82800
O309        O  0.58561319  0.77248387  0.93730532    -0.82300
C310        C  0.60031708  0.74452136  0.07226782     0.97100
O311        O  0.58939225  0.74414347  0.04802695    -0.71400
O312        O  0.57130319  0.75576637  0.99398414    -0.75000
Al313      Al  0.59205632  0.74660652  0.99464098     1.49000
C314        C  0.56605430  0.76895264  0.00476286     0.92300
O315        O  0.60266042  0.79615208  0.02078299    -0.81200
O316        O  0.63011384  0.78091223  0.99515065    -0.74800
Al317      Al  0.59454161  0.78227073  0.98159138     1.90100
O318        O  0.61272560  0.77953377  0.06144747    -0.73800
O319        O  0.62982948  0.74991074  0.99401972    -0.73700
O320        O  0.61394372  0.74912100  0.06280250    -0.79300
O321        O  0.61043570  0.73305922  0.99411500    -0.77500
O322        O  0.60233253  0.76458489  0.00074115    -1.13700
O323        O  0.59384595  0.74801796  0.94062181    -0.72900
C324        C  0.58875302  0.75952061  0.92131472     0.97900
C325        C  0.60930389  0.79337150  0.05224136     0.94300
Al326      Al  0.62023145  0.76480509  0.02617033     1.55600
O327        O  0.57538708  0.78035769  0.00955152    -0.77500
C328        C  0.62491357  0.73605707  0.98988195     0.98400
C329        C  0.62612020  0.78760489  0.96440988     0.93300
O330        O  0.61243189  0.78595396  0.95158309    -0.82800
O331        O  0.61512752  0.78756526  0.54303041    -0.82300
C332        C  0.60156696  0.74934958  0.41570131     0.97100
O333        O  0.61470561  0.75513738  0.42478120    -0.71400
O334        O  0.61401765  0.78573379  0.43257149    -0.75000
Al335      Al  0.62134515  0.76917782  0.46381018     1.49000
C336        C  0.60972323  0.79902159  0.44431399     0.92300
O337        O  0.57615512  0.78433613  0.49021643    -0.81200
O338        O  0.59525490  0.74912631  0.54718901    -0.74800
Al339      Al  0.59633273  0.78502136  0.51466906     1.90100
O340        O  0.57287612  0.75887391  0.49630638    -0.73800
O341        O  0.61139038  0.73638078  0.49118914    -0.73700
O342        O  0.59042863  0.74881207  0.43945423    -0.79300
O343        O  0.63106982  0.75284942  0.49183239    -0.77500
O344        O  0.60360023  0.76809235  0.49039297    -1.13700
O345        O  0.63187359  0.78334349  0.49701090    -0.72900
C346        C  0.62890401  0.78823953  0.53001165     0.97900
C347        C  0.56720838  0.77242474  0.49129337     0.94300
Al348      Al  0.59329930  0.74986593  0.49330702     1.55600
O349        O  0.60338563  0.80029309  0.47680522    -0.77500
C350        C  0.62587309  0.73905929  0.49526024     0.98400
C351        C  0.59102985  0.75978206  0.56990466     0.93300
O352        O  0.58841704  0.77358823  0.55792858    -0.82800
O353        O  0.87794203  0.29425452  0.20983169    -0.82300
C354        C  0.88700899  0.25301734  0.33468713     0.97100
O355        O  0.87445277  0.25991651  0.32540519    -0.71400
O356        O  0.87818096  0.29041534  0.32014902    -0.75000
Al357      Al  0.86938361  0.27513947  0.28737367     1.49000
C358        C  0.88390929  0.30334983  0.30931065     0.92300
O359        O  0.91533037  0.28667175  0.26475641    -0.81200
O360        O  0.89429711  0.25404414  0.20321978    -0.74800
Al361      Al  0.89602979  0.28942894  0.23861466     1.90100
O362        O  0.91721334  0.26134665  0.25516962    -0.73800
O363        O  0.87667208  0.24213128  0.25872720    -0.73700
O364        O  0.89831142  0.25203842  0.31142478    -0.79300
O365        O  0.85830202  0.26004555  0.25807312    -0.77500
O366        O  0.88707790  0.27287959  0.26111661    -1.13700
O367        O  0.86055926  0.29100147  0.25515125    -0.72900
C368        C  0.86452018  0.29686463  0.22352247     0.97900
C369        C  0.92360365  0.27444982  0.26205467     0.94300
Al370      Al  0.89590316  0.25397076  0.25741313     1.55600
O371        O  0.89021363  0.30454588  0.27686160    -0.77500
C372        C  0.86237139  0.24583881  0.25563105     0.98400
C373        C  0.90011829  0.26453296  0.18181761     0.93300
O374        O  0.90343193  0.27799167  0.19491604    -0.82800
O375        O  0.90665607  0.26748384  0.81675545    -0.82300
C376        C  0.88953504  0.24267652  0.67903202     0.97100
O377        O  0.90084013  0.24159000  0.70210270    -0.71400
O378        O  0.92005518  0.25172077  0.75534471    -0.75000
Al379      Al  0.89903594  0.24310636  0.75599276     1.49000
C380        C  0.92541380  0.26505680  0.74553633     0.92300
O381        O  0.88990763  0.29346026  0.73629165    -0.81200
O382        O  0.86215759  0.27839263  0.76145024    -0.74800
Al383      Al  0.89769904  0.27853210  0.77395323     1.90100
O384        O  0.87901362  0.27796485  0.69438241    -0.73800
O385        O  0.86160201  0.24787143  0.76010316    -0.73700
O386        O  0.87633814  0.24769974  0.69014130    -0.79300
O387        O  0.88011361  0.23015590  0.75708503    -0.77500
O388        O  0.88933905  0.26152001  0.75280203    -1.13700
O389        O  0.89796999  0.24332287  0.81009754    -0.72900
C390        C  0.90293964  0.25428451  0.83110573     0.97900
C391        C  0.88351816  0.29140879  0.70418625     0.94300
Al392      Al  0.87125703  0.26285553  0.72852991     1.55600
O393        O  0.91649310  0.27690329  0.74491552    -0.77500
C394        C  0.86593166  0.23382137  0.76340699     0.98400
C395        C  0.86610820  0.28333885  0.79390659     0.93300
O396        O  0.88002024  0.28181187  0.80536463    -0.82800
O397        O  0.11344824  0.29194907  0.29487750    -0.82300
C398        C  0.10547454  0.25899684  0.15693078     0.97100
O399        O  0.11794553  0.26563744  0.16823600    -0.71400
O400        O  0.11252487  0.29533344  0.18394234    -0.75000
Al401      Al  0.12237201  0.27890114  0.21128407     1.49000
C402        C  0.10721620  0.30741225  0.20006905     0.92300
O403        O  0.07602252  0.28670408  0.23877432    -0.81200
O404        O  0.09924602  0.25175375  0.28668881    -0.74800
Al405      Al  0.09544865  0.28856038  0.26507053     1.90100
O406        O  0.07552422  0.26095590  0.23854245    -0.73800
O407        O  0.11678853  0.24421051  0.22858481    -0.73700
O408        O  0.09441488  0.25620191  0.18001072    -0.79300
O409        O  0.13417887  0.26291567  0.23607237    -0.77500
O410        O  0.10492114  0.27416252  0.23653472    -1.13700
O411        O  0.13050064  0.29351997  0.24842422    -0.72900
C412        C  0.12632887  0.29687444  0.28195218     0.97900
C413        C  0.06845752  0.27397326  0.23619875     0.94300
Al414      Al  0.09705756  0.25486068  0.23369833     1.55600
O415        O  0.10075684  0.30630242  0.23247216    -0.77500
C416        C  0.13071853  0.24848474  0.23536826     0.98400
C417        C  0.09404611  0.26051168  0.31265063     0.93300
O418        O  0.08890203  0.27410599  0.30470112    -0.82800
O419        O  0.11447249  0.27838222  0.78666909    -0.82300
C420        C  0.10624214  0.24060303  0.65904451     0.97100
O421        O  0.11967247  0.24505537  0.67030789    -0.71400
O422        O  0.11775409  0.27522686  0.67737230    -0.75000
Al423      Al  0.12484529  0.25950568  0.71064526     1.49000
C424        C  0.11268482  0.28842207  0.68735890     0.92300
O425        O  0.07870180  0.27226018  0.72517904    -0.81200
O426        O  0.09809183  0.23898016  0.79059012    -0.74800
Al427      Al  0.09733829  0.27443505  0.75480113     1.90100
O428        O  0.07590540  0.24709452  0.73679774    -0.73800
O429        O  0.11578877  0.22641720  0.73576282    -0.73700
O430        O  0.09520560  0.23849881  0.68261495    -0.79300
O431        O  0.13439200  0.24390418  0.74111777    -0.77500
O432        O  0.10645749  0.25777930  0.73392683    -1.13700
O433        O  0.13351824  0.27456559  0.74568587    -0.72900
C434        C  0.12854512  0.28021924  0.77665240     0.97900
C435        C  0.07010269  0.26015287  0.72684890     0.94300
Al436      Al  0.09701120  0.23916483  0.73629518     1.55600
O437        O  0.10506945  0.28979194  0.71810092    -0.77500
C438        C  0.12996154  0.22981571  0.74243987     0.98400
C439        C  0.09229721  0.24966148  0.81131960     0.93300
O440        O  0.08845426  0.26283600  0.79703050    -0.82800
O441        O  0.26983004  0.89016697  0.30512050    -0.82300
C442        C  0.23739284  0.89916596  0.16799185     0.97100
O443        O  0.24224010  0.88613847  0.18076469    -0.71400
O444        O  0.27192147  0.88940277  0.19423915    -0.75000
Al445      Al  0.25524896  0.88117565  0.22318146     1.49000
C446        C  0.28464709  0.89379102  0.20876624     0.92300
O447        O  0.26719133  0.92712952  0.24472014    -0.81200
O448        O  0.23108320  0.90692057  0.29809695    -0.74800
Al449      Al  0.26778074  0.90794560  0.27316969     1.90100
O450        O  0.24157014  0.92961343  0.24746810    -0.73800
O451        O  0.22116677  0.88926964  0.24041689    -0.73700
O452        O  0.23484452  0.91052497  0.19026589    -0.79300
O453        O  0.23876328  0.87097292  0.24939926    -0.77500
O454        O  0.25224839  0.89920811  0.24677830    -1.13700
O455        O  0.26910051  0.87226992  0.26058489    -0.72900
C456        C  0.27241343  0.87634291  0.29412381     0.97900
C457        C  0.25507656  0.93571135  0.24362747     0.94300
Al458      Al  0.23359261  0.90842873  0.24431139     1.55600
O459        O  0.28471943  0.90056206  0.24074897    -0.77500
C460        C  0.22459478  0.87505481  0.24727020     0.98400
C461        C  0.24080453  0.91219434  0.32207301     0.93300
O462        O  0.25442103  0.91641869  0.31174277    -0.82800
O463        O  0.27969040  0.88752353  0.80174505    -0.82300
C464        C  0.24553609  0.90140928  0.66892421     0.97100
O465        O  0.25031188  0.88784594  0.67826254    -0.71400
O466        O  0.28056313  0.88926206  0.69118357    -0.75000
Al467      Al  0.26350836  0.88115841  0.71977523     1.49000
C468        C  0.29330829  0.89396044  0.70531062     0.92300
O469        O  0.27714568  0.92615653  0.74853270    -0.81200
O470        O  0.24073744  0.90678627  0.79993741    -0.74800
Al471      Al  0.27742685  0.90624671  0.77343461     1.90100
O472        O  0.25169372  0.92948342  0.75124325    -0.73800
O473        O  0.23003197  0.89036724  0.74226091    -0.73700
O474        O  0.24382702  0.91193693  0.69365304    -0.79300
O475        O  0.24666951  0.87086098  0.74527305    -0.77500
O476        O  0.26138187  0.89871410  0.74668186    -1.13700
O477        O  0.27751727  0.87081097  0.75490962    -0.72900
C478        C  0.28231872  0.87415570  0.78790881     0.97900
C479        C  0.26535117  0.93509013  0.74750252     0.94300
Al480      Al  0.24308164  0.90878954  0.74669990     1.55600
O481        O  0.29357382  0.89984508  0.73825797    -0.77500
C482        C  0.23277531  0.87589118  0.74705221     0.98400
C483        C  0.25064331  0.91128105  0.82421255     0.93300
O484        O  0.26478996  0.91377038  0.81478454    -0.82800
O485        O  0.27610333  0.12747452  0.21332321    -0.82300
C486        C  0.23834609  0.11676077  0.34218314     0.97100
O487        O  0.24337332  0.13004298  0.33130033    -0.71400
O488        O  0.27358508  0.12799543  0.32417506    -0.75000
Al489      Al  0.25782956  0.13568882  0.29168218     1.49000
C490        C  0.28690850  0.12395894  0.31250150     0.92300
O491        O  0.27192079  0.09024718  0.27244563    -0.81200
O492        O  0.23774353  0.10878134  0.20998868    -0.74800
Al493      Al  0.27319091  0.10950693  0.24430339     1.90100
O494        O  0.24664989  0.08683707  0.26379643    -0.73800
O495        O  0.22501398  0.12639991  0.26432674    -0.73700
O496        O  0.23680159  0.10568607  0.31857533    -0.79300
O497        O  0.24217658  0.14552522  0.26224875    -0.77500
O498        O  0.25634097  0.11764155  0.26681027    -1.13700
O499        O  0.27281177  0.14526979  0.25748393    -0.72900
C500        C  0.27770921  0.14138760  0.22489514     0.97900
C501        C  0.26010300  0.08122311  0.27078427     0.94300
Al502      Al  0.23798177  0.10771588  0.26441879     1.55600
O503        O  0.28839392  0.11731047  0.28061407    -0.77500
C504        C  0.22825253  0.14077609  0.25900680     0.98400
C505        C  0.24856858  0.10363782  0.18869855     0.93300
O506        O  0.26197814  0.10062542  0.20230242    -0.82800
O507        O  0.29011104  0.12650053  0.70465865    -0.82300
C508        C  0.25682890  0.11513219  0.84078459     0.97100
O509        O  0.26180030  0.12833781  0.82925400    -0.71400
O510        O  0.29176099  0.12628091  0.81498942    -0.75000
Al511      Al  0.27457595  0.13420931  0.78679210     1.49000
C512        C  0.30419988  0.12095302  0.80062025     0.92300
O513        O  0.28684077  0.08861273  0.76096435    -0.81200
O514        O  0.25065549  0.10829115  0.70928513    -0.74800
Al515      Al  0.28747737  0.10816661  0.73454316     1.90100
O516        O  0.26132673  0.08573538  0.75932385    -0.73800
O517        O  0.24068018  0.12529571  0.76719088    -0.73700
O518        O  0.25417721  0.10417969  0.81738683    -0.79300
O519        O  0.25773144  0.14442044  0.76169696    -0.77500
O520        O  0.27180620  0.11634873  0.76154956    -1.13700
O521        O  0.28827630  0.14384941  0.75016669    -0.72900
C522        C  0.29275748  0.14008862  0.71721968     0.97900
C523        C  0.27487441  0.07988239  0.76266174     0.94300
Al524      Al  0.25322392  0.10664478  0.76320237     1.55600
O525        O  0.30398368  0.11455751  0.76828946    -0.77500
C526        C  0.24371980  0.13964565  0.76137654     0.98400
C527        C  0.26054717  0.10393933  0.68462505     0.93300
O528        O  0.27443092  0.10052034  0.69432401    -0.82800
O529        O  0.87800681  0.71485144  0.28588007    -0.82300
C530        C  0.88482998  0.74775734  0.14753291     0.97100
O531        O  0.87219903  0.74159151  0.15950024    -0.71400
O532        O  0.87801525  0.71237334  0.17516067    -0.75000
Al533      Al  0.86807279  0.72841559  0.20290884     1.49000
C534        C  0.88419296  0.70042424  0.18994066     0.92300
O535        O  0.91461560  0.72141590  0.22720508    -0.81200
O536        O  0.89129386  0.75558510  0.27869670    -0.74800
Al537      Al  0.89560260  0.71891004  0.25486471     1.90100
O538        O  0.91482656  0.74716004  0.22861159    -0.73800
O539        O  0.87291729  0.76324952  0.22082565    -0.73700
O540        O  0.89540021  0.75180412  0.17077514    -0.79300
O541        O  0.85596845  0.74408641  0.22761003    -0.77500
O542        O  0.88554059  0.73339228  0.22755537    -1.13700
O543        O  0.86039866  0.71370451  0.24067643    -0.72900
C544        C  0.86488426  0.71020768  0.27393357     0.97900
C545        C  0.92207559  0.73424043  0.22571203     0.94300
Al546      Al  0.89300742  0.75290431  0.22486513     1.55600
O547        O  0.89050407  0.70126127  0.22239406    -0.77500
C548        C  0.85903550  0.75859487  0.22717316     0.98400
C549        C  0.89759110  0.74667854  0.30318204     0.93300
O550        O  0.90238886  0.73314197  0.29391749    -0.82800
O551        O  0.88165677  0.72512894  0.77515583    -0.82300
C552        C  0.88907099  0.76495008  0.64801235     0.97100
O553        O  0.87600690  0.76053145  0.66162179    -0.71400
O554        O  0.87721540  0.73017514  0.66669713    -0.75000
Al555      Al  0.87129885  0.74573100  0.70146453     1.49000
C556        C  0.88267421  0.71688095  0.67488903     0.92300
O557        O  0.91766966  0.73111102  0.71284908    -0.81200
O558        O  0.90027403  0.76479066  0.77791027    -0.74800
Al559      Al  0.89885164  0.72929103  0.74259128     1.90100
O560        O  0.92100387  0.75631225  0.72179337    -0.73800
O561        O  0.88201785  0.77824140  0.72581690    -0.73700
O562        O  0.90103428  0.76587931  0.66923016    -0.79300
O563        O  0.86310284  0.76123734  0.73402378    -0.77500
O564        O  0.89016201  0.74649328  0.72255413    -1.13700
O565        O  0.86246725  0.73069015  0.73617197    -0.72900
C566        C  0.86733725  0.72449560  0.76656907     0.97900
C567        C  0.92647324  0.74307944  0.71274757     0.94300
Al568      Al  0.90031564  0.76481715  0.72365847     1.55600
O569        O  0.89064733  0.71484526  0.70487602    -0.77500
C570        C  0.86799820  0.77517596  0.73503817     0.98400
C571        C  0.90489376  0.75365043  0.79913953     0.93300
O572        O  0.90795504  0.74024291  0.78520826    -0.82800
O573        O  0.11285909  0.71828247  0.19905928    -0.82300
C574        C  0.10248971  0.75815096  0.32384007     0.97100
O575        O  0.11570283  0.75299135  0.31300432    -0.71400
O576        O  0.11650535  0.72240690  0.30718041    -0.75000
Al577      Al  0.12190212  0.73886863  0.27333490     1.49000
C578        C  0.11109900  0.70908209  0.29889346     0.92300
O579        O  0.07626996  0.72242439  0.25908051    -0.81200
O580        O  0.09324422  0.75655030  0.19335936    -0.74800
Al581      Al  0.09532429  0.72141684  0.23046933     1.90100
O582        O  0.07199356  0.74733158  0.24783452    -0.73800
O583        O  0.11000271  0.77101591  0.24648656    -0.73700
O584        O  0.09082800  0.75830312  0.30158891    -0.79300
O585        O  0.13015370  0.75537599  0.24280691    -0.77500
O586        O  0.10324526  0.73893541  0.25064143    -1.13700
O587        O  0.13174406  0.72469668  0.23823693    -0.72900
C588        C  0.12717696  0.71841999  0.20769205     0.97900
C589        C  0.06686884  0.73382377  0.25625106     0.94300
Al590      Al  0.09239992  0.75679047  0.24757548     1.55600
O591        O  0.10350061  0.70716109  0.26842711    -0.77500
C592        C  0.12447482  0.76899110  0.24077966     0.98400
C593        C  0.08846088  0.74528619  0.17297706     0.93300
O594        O  0.08601344  0.73182882  0.18744232    -0.82800
O595        O  0.09091973  0.73677366  0.80753822    -0.82300
C596        C  0.10555371  0.76303389  0.66943528     0.97100
O597        O  0.09478434  0.76392708  0.69395931    -0.71400
O598        O  0.07634363  0.75333499  0.74789221    -0.75000
Al599      Al  0.09742317  0.76193410  0.74726393     1.49000
C600        C  0.07099387  0.74007294  0.73782929     0.92300
O601        O  0.10617915  0.71198424  0.72364039    -0.81200
O602        O  0.13437750  0.72624414  0.74658256    -0.74800
Al603      Al  0.09912305  0.72630567  0.76314701     1.90100
O604        O  0.11642059  0.72807800  0.68165581    -0.73800
O605        O  0.13507566  0.75722409  0.74744430    -0.73700
O606        O  0.11911139  0.75839025  0.67895505    -0.79300
O607        O  0.11641662  0.77487382  0.74731807    -0.77500
O608        O  0.10716077  0.74360470  0.74229856    -1.13700
O609        O  0.09906982  0.76118189  0.80107710    -0.72900
C610        C  0.09419893  0.75003709  0.82189122     0.97900
C611        C  0.11208607  0.71449433  0.69109582     0.94300
Al612      Al  0.12484075  0.74262153  0.71596082     1.55600
O613        O  0.07995431  0.72830533  0.73632289    -0.77500
C614        C  0.13075016  0.77124876  0.75174915     0.98400
C615        C  0.13063977  0.71992391  0.77799677     0.93300
O616        O  0.11728529  0.72233152  0.79220770    -0.82800
O617        O  0.71356456  0.88332456  0.20244020    -0.82300
C618        C  0.74857330  0.88907321  0.33696324     0.97100
O619        O  0.74335784  0.87626685  0.32379302    -0.71400
O620        O  0.71350539  0.88050353  0.31233700    -0.75000
Al621      Al  0.72968361  0.87239713  0.28162096     1.49000
C622        C  0.70113579  0.88697225  0.30065304     0.92300
O623        O  0.72012722  0.91998970  0.26189564    -0.81200
O624        O  0.75454385  0.89877489  0.20741087    -0.74800
Al625      Al  0.71780894  0.90071111  0.23414917     1.90100
O626        O  0.74577065  0.92068809  0.25967314    -0.73800
O627        O  0.76378803  0.87970240  0.26238903    -0.73700
O628        O  0.75148061  0.90050999  0.31499241    -0.79300
O629        O  0.74564026  0.86190945  0.25353758    -0.77500
O630        O  0.73318246  0.89081097  0.25888006    -1.13700
O631        O  0.71486969  0.86462371  0.24512462    -0.72900
C632        C  0.71030644  0.86957187  0.21314773     0.97900
C633        C  0.73282592  0.92768091  0.26355725     0.94300
Al634      Al  0.75231953  0.89923540  0.26099882     1.55600
O635        O  0.70111294  0.89447974  0.26937740    -0.77500
C636        C  0.75994255  0.86576109  0.25414524     0.98400
C637        C  0.74503450  0.90459542  0.18367763     0.93300
O638        O  0.73117786  0.90820625  0.19360875    -0.82800
O639        O  0.71652468  0.88217449  0.71154058    -0.82300
C640        C  0.75189068  0.90161909  0.83758646     0.97100
O641        O  0.74904662  0.88743010  0.82929378    -0.71400
O642        O  0.71875178  0.88536361  0.82178456    -0.75000
Al643      Al  0.73546439  0.87882947  0.79089183     1.49000
C644        C  0.70508653  0.88787701  0.80980215     0.92300
O645        O  0.71584771  0.92137366  0.76221392    -0.81200
O646        O  0.75279397  0.90555444  0.70573900    -0.74800
Al647      Al  0.71720341  0.90132693  0.73829762     1.90100
O648        O  0.74054739  0.92761650  0.75371094    -0.73800
O649        O  0.76691876  0.89159678  0.76338824    -0.73700
O650        O  0.75167118  0.91212356  0.81216017    -0.79300
O651        O  0.75233476  0.87041094  0.76290631    -0.77500
O652        O  0.73472228  0.89611861  0.76266162    -1.13700
O653        O  0.72182886  0.86643061  0.75916869    -0.72900
C654        C  0.71631248  0.86865685  0.72626399     0.97900
C655        C  0.72656324  0.93162483  0.76057606     0.94300
Al656      Al  0.75164377  0.90826837  0.75903497     1.55600
O657        O  0.70295020  0.89326871  0.77662168    -0.77500
C658        C  0.76557032  0.87687784  0.75949206     0.98400
C659        C  0.74178341  0.90822900  0.68260454     0.93300
O660        O  0.72777949  0.90980559  0.69427003    -0.82800
O661        O  0.71980649  0.11912743  0.30792102    -0.82300
C662        C  0.76347644  0.11073101  0.19033539     0.97100
O663        O  0.75847611  0.12394317  0.20139243    -0.71400
O664        O  0.72813948  0.12180978  0.19940335    -0.75000
Al665      Al  0.74207999  0.12886006  0.23688593     1.49000
C666        C  0.71455565  0.11667537  0.20582691     0.92300
O667        O  0.72753181  0.08303237  0.24830187    -0.81200
O668        O  0.75849317  0.10112500  0.32083764    -0.74800
Al669      Al  0.72467597  0.10174188  0.27709910     1.90100
O670        O  0.75201767  0.07938320  0.26473916    -0.73800
O671        O  0.77357691  0.11933660  0.26955591    -0.73700
O672        O  0.76355704  0.09902789  0.21268911    -0.79300
O673        O  0.75607508  0.13802507  0.27166894    -0.77500
O674        O  0.74237068  0.11038492  0.26025174    -1.13700
O675        O  0.72554162  0.13777809  0.26707803    -0.72900
C676        C  0.71881410  0.13323131  0.29721901     0.97900
C677        C  0.73906834  0.07393138  0.25295518     0.94300
Al678      Al  0.76053159  0.10048476  0.26654536     1.55600
O679        O  0.71144125  0.10962144  0.23666277    -0.77500
C680        C  0.77009899  0.13365949  0.27475593     0.98400
C681        C  0.74677007  0.09565801  0.33889872     0.93300
O682        O  0.73404849  0.09264261  0.32169113    -0.82800
O683        O  0.72601826  0.09683520  0.70195683    -0.82300
C684        C  0.74900362  0.11046893  0.84553018     0.97100
O685        O  0.75021312  0.09962456  0.82128918    -0.71400
O686        O  0.74085174  0.08152145  0.76537962    -0.75000
Al687      Al  0.74927023  0.10229196  0.76751268     1.49000
C688        C  0.72737006  0.07581429  0.77119702     0.92300
O689        O  0.69893525  0.11032179  0.78216235    -0.81200
O690        O  0.71421874  0.13974886  0.76300327    -0.74800
Al691      Al  0.71430717  0.10427297  0.74496902     1.90100
O692        O  0.71266177  0.12149159  0.82718411    -0.73800
O693        O  0.74538374  0.14035817  0.76947825    -0.73700
O694        O  0.74307440  0.12355240  0.83632318    -0.79300
O695        O  0.76199311  0.12076362  0.76936552    -0.77500
O696        O  0.73085076  0.11214052  0.76965170    -1.13700
O697        O  0.75029065  0.10394967  0.71355846    -0.72900
C698        C  0.73986036  0.09949697  0.69048736     0.97900
C699        C  0.69982141  0.11611805  0.81509131     0.94300
Al700      Al  0.72902465  0.12977859  0.79653073     1.55600
O701        O  0.71541130  0.08449062  0.77007382    -0.77500
C702        C  0.75924306  0.13528179  0.76633153     0.98400
C703        C  0.70862928  0.13628990  0.73083377     0.93300
O704        O  0.71100920  0.12291795  0.71675995    -0.82800
C705        C  0.74744838  0.09281457  0.38057731    -0.03700
C706        C  0.73499928  0.08490448  0.39872357    -0.06300
C707        C  0.73468122  0.08316869  0.43815602    -0.21400
C708        C  0.74669721  0.08938390  0.46083685     0.24400
C709        C  0.75945147  0.09694421  0.44271176    -0.18900
C710        C  0.75980789  0.09861637  0.40296301    -0.08900
C711        C  0.74500344  0.08785693  0.50296582    -0.19200
C712        C  0.75339643  0.09599009  0.52881224    -0.24000
C713        C  0.75000436  0.09556446  0.57048854     0.26400
C714        C  0.76173663  0.10023957  0.59611953    -0.20700
C715        C  0.75863273  0.10114346  0.63518731    -0.10400
C716        C  0.74363802  0.09751962  0.64953035    -0.10900
C717        C  0.73195669  0.09263211  0.62396879    -0.03800
C718        C  0.73505450  0.09171401  0.58500538    -0.19000
H719        H  0.72529268  0.08021143  0.38246387     0.10100
H720        H  0.72475153  0.07721641  0.45107539     0.10200
H721        H  0.76915023  0.10164001  0.45883908     0.09900
H722        H  0.76957454  0.10474753  0.38984748     0.11000
H723        H  0.73583624  0.07999243  0.51295564     0.11100
H724        H  0.76290785  0.10355946  0.51950803     0.13000
H725        H  0.77331156  0.10339566  0.58580863     0.09500
H726        H  0.76789176  0.10498664  0.65404923     0.11600
H727        H  0.72023998  0.08985298  0.63394978     0.08200
H728        H  0.72548141  0.08855371  0.56641760     0.10900
C729        C  0.76837439  0.10926038  0.15023532    -0.03700
C730        C  0.77451514  0.12241181  0.13112469    -0.06300
C731        C  0.77590356  0.12248896  0.09160543    -0.21400
C732        C  0.77100105  0.10951865  0.07007402     0.24400
C733        C  0.76566320  0.09595862  0.08945647    -0.18900
C734        C  0.76448371  0.09582317  0.12923037    -0.08900
C735        C  0.77017379  0.11148285  0.02794861    -0.19200
C736        C  0.76617802  0.10011017  0.00315416    -0.24000
C737        C  0.76299152  0.10332351  0.96219856     0.26400
C738        C  0.76417577  0.09103772  0.93579869    -0.20700
C739        C  0.76002154  0.09337806  0.89766378    -0.10400
C740        C  0.75440358  0.10804237  0.88521468    -0.10900
C741        C  0.75339350  0.12037918  0.91156234    -0.03800
C742        C  0.75757438  0.11805896  0.94953089    -0.19000
H743        H  0.77757846  0.13293940  0.14667716     0.10100
H744        H  0.78011012  0.13307380  0.07767824     0.10200
H745        H  0.76162135  0.08571792  0.07429399     0.09900
H746        H  0.75948050  0.08562798  0.14330689     0.11000
H747        H  0.77250421  0.12320464  0.01698485     0.11100
H748        H  0.76498100  0.08805309  0.01277379     0.13000
H749        H  0.76815671  0.07953309  0.94482082     0.09500
H750        H  0.76090628  0.08362087  0.87812712     0.11600
H751        H  0.74903152  0.13180848  0.90304955     0.08200
H752        H  0.75595108  0.12770728  0.96904030     0.10900
C753        C  0.72586678  0.05874030  0.77832728    -0.03700
C754        C  0.73912954  0.05014130  0.78941700    -0.06300
C755        C  0.73832692  0.03388209  0.79367232    -0.21400
C756        C  0.72432724  0.02571016  0.78651291     0.24400
C757        C  0.71086460  0.03431476  0.77620682    -0.18900
C758        C  0.71163501  0.05072892  0.77234854    -0.08900
C759        C  0.72481262  0.00827701  0.78921079    -0.19200
C760        C  0.71412443  0.99832803  0.77445009    -0.24000
C761        C  0.71720786  0.98114327  0.77229706     0.26400
C762        C  0.70474687  0.97029942  0.77346458    -0.20700
C763        C  0.70764397  0.95410350  0.77037705    -0.10400
C764        C  0.72306029  0.94854924  0.76554888    -0.10900
C765        C  0.73542955  0.95947393  0.76400084    -0.03800
C766        C  0.73255501  0.97550766  0.76707185    -0.19000
H767        H  0.75023843  0.05597967  0.79447169     0.10100
H768        H  0.74886979  0.02760544  0.80174182     0.10200
H769        H  0.69978548  0.02851232  0.77098162     0.09900
H770        H  0.70123012  0.05709654  0.76372943     0.11000
H771        H  0.73523340  0.00332342  0.80232141     0.11100
H772        H  0.70323514  0.00269906  0.76256440     0.13000
H773        H  0.69278977  0.97436697  0.77687492     0.09500
H774        H  0.69785175  0.94597737  0.77133441     0.11600
H775        H  0.74743156  0.95566973  0.75982632     0.08200
H776        H  0.74240789  0.98347679  0.76431241     0.10900
C777        C  0.75043781  0.89060945  0.37862188    -0.03700
C778        C  0.74480585  0.87858883  0.40255887    -0.06300
C779        C  0.74431579  0.88062966  0.44178506    -0.21400
C780        C  0.74962926  0.89462203  0.45825556     0.24400
C781        C  0.75592405  0.90646104  0.43462074    -0.18900
C782        C  0.75627534  0.90447498  0.39507556    -0.08900
C783        C  0.74700931  0.89678901  0.49958116    -0.19200
C784        C  0.75510669  0.90681612  0.52160136    -0.24000
C785        C  0.75154329  0.90827614  0.56271096     0.26400
C786        C  0.76380986  0.91002388  0.58887233    -0.20700
C787        C  0.76066972  0.91029392  0.62792790    -0.10400
C788        C  0.74515176  0.90919083  0.64140120    -0.10900
C789        C  0.73283889  0.90817257  0.61502803    -0.03800
C790        C  0.73599694  0.90767850  0.57612390    -0.19000
H791        H  0.74013676  0.86778416  0.39092250     0.10100
H792        H  0.73937876  0.87135452  0.45930770     0.10200
H793        H  0.75987679  0.91751863  0.44632023     0.09900
H794        H  0.76059210  0.91398271  0.37735634     0.11000
H795        H  0.73816685  0.88933248  0.51282416     0.11100
H796        H  0.76504758  0.91326398  0.51007673     0.13000
H797        H  0.77586125  0.91065216  0.57913076     0.09500
H798        H  0.77039316  0.91116784  0.64758397     0.11600
H799        H  0.72075999  0.90733635  0.62447551     0.08200
H800        H  0.72625966  0.90675353  0.55652661     0.10900
C801        C  0.74996414  0.90696353  0.14363363    -0.03700
C802        C  0.76478125  0.90191543  0.13105500    -0.06300
C803        C  0.76878385  0.90275907  0.09252641    -0.21400
C804        C  0.75815831  0.90880447  0.06577695     0.24400
C805        C  0.74351689  0.91432598  0.07856598    -0.18900
C806        C  0.73949879  0.91343700  0.11703444    -0.08900
C807        C  0.76197989  0.90753058  0.02464178    -0.19200
C808        C  0.75487699  0.91609567  0.99736002    -0.24000
C809        C  0.75640013  0.91271586  0.95607260     0.26400
C810        C  0.75237195  0.92443827  0.92963168    -0.20700
C811        C  0.75175053  0.92108152  0.89076035    -0.10400
C812        C  0.75487407  0.90583170  0.87764336    -0.10900
C813        C  0.75930171  0.89420863  0.90392025    -0.03800
C814        C  0.76010358  0.89759891  0.94266969    -0.19000
H815        H  0.77311641  0.89685378  0.15079431     0.10100
H816        H  0.78007827  0.89830782  0.08344338     0.10200
H817        H  0.73479751  0.91865472  0.05886552     0.09900
H818        H  0.72796806  0.91737588  0.12573190     0.11000
H819        H  0.77072886  0.89889751  0.01666939     0.11100
H820        H  0.74729441  0.92576326  0.00537711     0.13000
H821        H  0.74927799  0.93611462  0.93918446     0.09500
H822        H  0.74809762  0.93022221  0.87118358     0.11600
H823        H  0.76167547  0.88232967  0.89462818     0.08200
H824        H  0.76282054  0.88809541  0.96204655     0.10900
C825        C  0.73303011  0.94509439  0.26790500    -0.03700
C826        C  0.74694945  0.95259747  0.27934171    -0.06300
C827        C  0.74821360  0.96897843  0.27902471    -0.21400
C828        C  0.73571567  0.97842549  0.26670564     0.24400
C829        C  0.72155119  0.97099950  0.25621769    -0.18900
C830        C  0.72021841  0.95448904  0.25696878    -0.08900
C831        C  0.73812678  0.99585881  0.26612291    -0.19200
C832        C  0.72966448  0.00618025  0.24527735    -0.24000
C833        C  0.73272692  0.02354308  0.24499092     0.26400
C834        C  0.72054435  0.03385878  0.23487978    -0.20700
C835        C  0.72270756  0.05021005  0.23615959    -0.10400
C836        C  0.73720500  0.05667744  0.24718566    -0.10900
C837        C  0.74963380  0.04636276  0.25545040    -0.03800
C838        C  0.74746049  0.03003472  0.25427370    -0.19000
H839        H  0.75705293  0.94575360  0.28797076     0.10100
H840        H  0.75920261  0.97429145  0.28764696     0.10200
H841        H  0.71148860  0.97783568  0.24747619     0.09900
H842        H  0.70936876  0.94906966  0.24778789     0.11000
H843        H  0.74769581  0.00026303  0.28335612     0.11100
H844        H  0.71992492  0.00192651  0.22837133     0.13000
H845        H  0.70915337  0.02925342  0.22697783     0.09500
H846        H  0.71289182  0.05778295  0.22940785     0.11600
H847        H  0.76101088  0.05090449  0.26365605     0.08200
H848        H  0.75739668  0.02260328  0.26065295     0.10900
C849        C  0.10218953  0.76663263  0.62900719    -0.03700
C850        C  0.08662871  0.76819626  0.61620312    -0.06300
C851        C  0.08334755  0.76935891  0.57729425    -0.21400
C852        C  0.09554578  0.76927370  0.55044992     0.24400
C853        C  0.11113040  0.76807813  0.56338333    -0.18900
C854        C  0.11439521  0.76677716  0.60214629    -0.08900
C855        C  0.09176382  0.76894855  0.50917196    -0.19200
C856        C  0.10169145  0.77470486  0.48268361    -0.24000
C857        C  0.10042132  0.77192316  0.44102818     0.26400
C858        C  0.11380731  0.77489931  0.41882923    -0.20700
C859        C  0.11419962  0.77085825  0.38051552    -0.10400
C860        C  0.10108122  0.76402344  0.36310795    -0.10900
C861        C  0.08729392  0.76185307  0.38444005    -0.03800
C862        C  0.08696840  0.76567114  0.42321886    -0.19000
H863        H  0.07693326  0.76789044  0.63614262     0.10100
H864        H  0.07124580  0.77005157  0.56808834     0.10200
H865        H  0.12083163  0.76739455  0.54358449     0.09900
H866        H  0.12647818  0.76536006  0.61097822     0.11000
H867        H  0.08092941  0.76323756  0.50086615     0.11100
H868        H  0.11211307  0.78089316  0.49223195     0.13000
H869        H  0.12429006  0.77981136  0.43153576     0.09500
H870        H  0.12492508  0.77280498  0.36458329     0.11600
H871        H  0.07702182  0.75659677  0.37154970     0.08200
H872        H  0.07629072  0.76346272  0.43897361     0.10900
C873        C  0.09253104  0.75230948  0.86349924    -0.03700
C874        C  0.09864400  0.76576897  0.88123848    -0.06300
C875        C  0.09812305  0.76727650  0.92083470    -0.21400
C876        C  0.09128910  0.75550202  0.94358536     0.24400
C877        C  0.08501176  0.74210578  0.92574507    -0.18900
C878        C  0.08561694  0.74055875  0.88622763    -0.08900
C879        C  0.09185472  0.75708365  0.98574330    -0.19200
C880        C  0.08184409  0.74957726  0.00941830    -0.24000
C881        C  0.08310499  0.74962444  0.05166333     0.26400
C882        C  0.07549157  0.73759174  0.07198737    -0.20700
C883        C  0.07693503  0.73645489  0.11140673    -0.10400
C884        C  0.08585048  0.74749397  0.13169246    -0.10900
C885        C  0.09297739  0.75994242  0.11171457    -0.03800
C886        C  0.09166595  0.76099783  0.07206365    -0.19000
H887        H  0.10418340  0.77497729  0.86459921     0.10100
H888        H  0.10319844  0.77763016  0.93378614     0.10200
H889        H  0.08011517  0.73249441  0.94212745     0.09900
H890        H  0.08092390  0.72997806  0.87352753     0.11000
H891        H  0.10103324  0.76449588  0.99727495     0.11100
H892        H  0.07256172  0.74240569  0.99743557     0.13000
H893        H  0.06870245  0.72875516  0.05718003     0.09500
H894        H  0.07120969  0.72677549  0.12598287     0.11600
H895        H  0.09991599  0.76862616  0.12661943     0.08200
H896        H  0.09736649  0.77071703  0.05774576     0.10900
C897        C  0.85689883  0.78789271  0.74478274    -0.03700
C898        C  0.84232019  0.78415200  0.76112177    -0.06300
C899        C  0.83095033  0.79572133  0.76619825    -0.21400
C900        C  0.83375431  0.81131141  0.75481285     0.24400
C901        C  0.84862761  0.81523322  0.73985700    -0.18900
C902        C  0.86009618  0.80361230  0.73502395    -0.08900
C903        C  0.82053166  0.82265688  0.75804905    -0.19200
C904        C  0.82046071  0.83743391  0.74405707    -0.24000
C905        C  0.80627651  0.84754343  0.74610729     0.26400
C906        C  0.80797082  0.86389382  0.74938710    -0.20700
C907        C  0.79475471  0.87355234  0.75286390    -0.10400
C908        C  0.77958228  0.86701282  0.75267592    -0.10900
C909        C  0.77790502  0.85072227  0.74765476    -0.03800
C910        C  0.79107495  0.84110524  0.74427437    -0.19000
H911        H  0.83953338  0.77216471  0.76918318     0.10100
H912        H  0.81969531  0.79233761  0.77809616     0.10200
H913        H  0.85146948  0.82709868  0.73123779     0.09900
H914        H  0.87125058  0.80682899  0.72235903     0.11000
H915        H  0.81000854  0.81835405  0.77216405     0.11100
H916        H  0.83093472  0.84248804  0.73144830     0.13000
H917        H  0.81955641  0.86915585  0.75024235     0.09500
H918        H  0.79642707  0.88607512  0.75646235     0.11600
H919        H  0.76637905  0.84533234  0.74680310     0.08200
H920        H  0.78929351  0.82863860  0.74009329     0.10900
C921        C  0.05404030  0.73820435  0.72893848    -0.03700
C922        C  0.04716326  0.72317629  0.72756199    -0.06300
C923        C  0.03101555  0.72140996  0.72141229    -0.21400
C924        C  0.02135301  0.73457198  0.71582295     0.24400
C925        C  0.02830240  0.74962877  0.71649561    -0.18900
C926        C  0.04443899  0.75139846  0.72302110    -0.08900
C927        C  0.00401875  0.73217181  0.71240250    -0.19200
C928        C  0.99422777  0.74277821  0.69652264    -0.24000
C929        C  0.97669879  0.74165855  0.69713782     0.26400
C930        C  0.96812293  0.75540315  0.68977847    -0.20700
C931        C  0.95179294  0.75558892  0.69330231    -0.10400
C932        C  0.94348535  0.74195572  0.70380064    -0.10900
C933        C  0.95187958  0.72790809  0.70901958    -0.03800
C934        C  0.96834033  0.72774668  0.70585122    -0.19000
H935        H  0.05420286  0.71275993  0.73219121     0.10100
H936        H  0.02601526  0.70969370  0.72140982     0.10200
H937        H  0.02129672  0.76013475  0.71342253     0.09900
H938        H  0.04936977  0.76313323  0.72393803     0.11000
H939        H  0.99928998  0.72139241  0.72431930     0.11100
H940        H  0.99919600  0.75334844  0.68400638     0.13000
H941        H  0.97413039  0.76624986  0.68257174     0.09500
H942        H  0.94567114  0.76658036  0.68870488     0.11600
H943        H  0.94579302  0.71721127  0.71705162     0.08200
H944        H  0.97437297  0.71676352  0.71070748     0.10900
C945        C  0.84625495  0.77025525  0.23281771    -0.03700
C946        C  0.83044823  0.76547740  0.23365526    -0.06300
C947        C  0.81838721  0.77655776  0.23706784    -0.21400
C948        C  0.82176558  0.79269843  0.23956328     0.24400
C949        C  0.83762572  0.79744624  0.23977404    -0.18900
C950        C  0.84968912  0.78636174  0.23626972    -0.08900
C951        C  0.80844097  0.80404286  0.24284537    -0.19200
C952        C  0.80956101  0.81953146  0.23450374    -0.24000
C953        C  0.79638268  0.83101690  0.23827271     0.26400
C954        C  0.80002385  0.84711265  0.24008382    -0.20700
C955        C  0.78820383  0.85836711  0.24451902    -0.10400
C956        C  0.77234840  0.85384738  0.24684447    -0.10900
C957        C  0.76860576  0.83778941  0.24378209    -0.03800
C958        C  0.78045906  0.82649691  0.23954800    -0.19000
H959        H  0.82736507  0.75317111  0.23111639     0.10100
H960        H  0.80632583  0.77250183  0.23724438     0.10200
H961        H  0.84085844  0.80965421  0.24306032     0.09900
H962        H  0.86174229  0.79042972  0.23621830     0.11000
H963        H  0.79726801  0.79925349  0.25213191     0.11100
H964        H  0.82073566  0.82426281  0.22504626     0.13000
H965        H  0.81212766  0.85100320  0.23873030     0.09500
H966        H  0.79152329  0.87063132  0.24652462     0.11600
H967        H  0.75650637  0.83390820  0.24522148     0.08200
H968        H  0.77701791  0.81431253  0.23702683     0.10900
C969        C  0.89939960  0.75179448  0.34321927    -0.03700
C970        C  0.90997204  0.74393306  0.36725723    -0.06300
C971        C  0.91109295  0.74786805  0.40566501    -0.21400
C972        C  0.90151822  0.75958285  0.42134193     0.24400
C973        C  0.89115438  0.76775285  0.39710386    -0.18900
C974        C  0.89014633  0.76390234  0.35842480    -0.08900
C975        C  0.90266781  0.76261260  0.46302978    -0.19200
C976        C  0.89114560  0.76923007  0.48380286    -0.24000
C977        C  0.89129051  0.76982812  0.52616317     0.26400
C978        C  0.87685309  0.76984608  0.54532900    -0.20700
C979        C  0.87623011  0.76899368  0.58492588    -0.10400
C980        C  0.89006839  0.76831224  0.60660414    -0.10900
C981        C  0.90459062  0.76920399  0.58765192    -0.03800
C982        C  0.90521405  0.76993686  0.54778359    -0.19000
H983        H  0.91733674  0.73460457  0.35641864     0.10100
H984        H  0.91925593  0.74144676  0.42343570     0.10200
H985        H  0.88384087  0.77713434  0.40770729     0.09900
H986        H  0.88188188  0.77016108  0.34060682     0.11000
H987        H  0.91281413  0.75782469  0.47762115     0.11100
H988        H  0.88038764  0.77281445  0.46982802     0.13000
H989        H  0.86595134  0.76990937  0.52952445     0.09500
H990        H  0.86483156  0.76839664  0.59851730     0.11600
H991        H  0.91545995  0.76873674  0.60352447     0.08200
H992        H  0.91657565  0.77040352  0.53406914     0.10900
C993        C  0.88720113  0.74952210  0.10578925    -0.03700
C994        C  0.87775905  0.74081475  0.08075099    -0.06300
C995        C  0.88054366  0.74113337  0.04163054    -0.21400
C996        C  0.89263624  0.75038037  0.02616018     0.24400
C997        C  0.90193587  0.75942164  0.05095078    -0.18900
C998        C  0.89931014  0.75889029  0.09043919    -0.08900
C999        C  0.89568771  0.74930561  0.98449326    -0.19200
C1000       C  0.90232451  0.76073405  0.96311409    -0.24000
C1001       C  0.90434251  0.75906906  0.92116034     0.26400
C1002       C  0.90248418  0.77221302  0.89730294    -0.20700
C1003       C  0.90318397  0.77064225  0.85763648    -0.10400
C1004       C  0.90608437  0.75591694  0.84098521    -0.10900
C1005       C  0.90877971  0.74294636  0.86503831    -0.03800
C1006       C  0.90789004  0.74448602  0.90456513    -0.19000
H1007       H  0.86845976  0.73331010  0.09149179     0.10100
H1008       H  0.87326882  0.73396642  0.02332879     0.10200
H1009       H  0.91155723  0.76645141  0.04009533     0.09900
H1010       H  0.90686759  0.76563309  0.10897497     0.11000
H1011       H  0.89140722  0.73881178  0.97034898     0.11100
H1012       H  0.90524817  0.77193757  0.97598871     0.13000
H1013       H  0.89991147  0.78361888  0.90934512     0.09500
H1014       H  0.90107008  0.78087877  0.84001385     0.11600
H1015       H  0.91110347  0.73143321  0.85330885     0.08200
H1016       H  0.90987199  0.73420439  0.92210797     0.10900
C1017       C  0.93948138  0.73425295  0.22354227    -0.03700
C1018       C  0.94772558  0.74845982  0.21909912    -0.06300
C1019       C  0.96409478  0.74884011  0.22165404    -0.21400
C1020       C  0.97267358  0.73508995  0.22914069     0.24400
C1021       C  0.96447591  0.72074303  0.23229409    -0.18900
C1022       C  0.94806094  0.72035015  0.22948385    -0.08900
C1023       C  0.99005553  0.73644488  0.23325958    -0.19200
C1024       C  0.99937197  0.72552845  0.24968735    -0.24000
C1025       C  0.01663875  0.72777295  0.25434523     0.26400
C1026       C  0.02654403  0.71458304  0.25568503    -0.20700
C1027       C  0.04289290  0.71640407  0.25813748    -0.10400
C1028       C  0.04963967  0.73148352  0.25965166    -0.10900
C1029       C  0.03964884  0.74461795  0.26029886    -0.03800
C1030       C  0.02338106  0.74280260  0.25786022    -0.19000
H1031       H  0.94149956  0.75938620  0.21446041     0.10100
H1032       H  0.97006020  0.76003554  0.21869606     0.10200
H1033       H  0.97059331  0.70979351  0.23697681     0.09900
H1034       H  0.94206038  0.70920849  0.23305753     0.11000
H1035       H  0.99533381  0.74724656  0.22282309     0.11100
H1036       H  0.99442407  0.71449786  0.25953115     0.13000
H1037       H  0.02165309  0.70285965  0.25361557     0.09500
H1038       H  0.05025943  0.70605049  0.25743416     0.11600
H1039       H  0.04443180  0.75639983  0.26186281     0.08200
H1040       H  0.01616106  0.75323891  0.25869309     0.10900
C1041       C  0.25641686  0.10339925  0.64363353    -0.03700
C1042       C  0.26850839  0.10251664  0.61648438    -0.06300
C1043       C  0.26525983  0.10388974  0.57779733    -0.21400
C1044       C  0.24982287  0.10583744  0.56498021     0.24400
C1045       C  0.23754710  0.10604015  0.59180163    -0.18900
C1046       C  0.24084113  0.10495940  0.63088091    -0.08900
C1047       C  0.24737706  0.10918519  0.52394585    -0.19200
C1048       C  0.23454730  0.10508047  0.50396954    -0.24000
C1049       C  0.23359789  0.10861423  0.46260757     0.26400
C1050       C  0.22892315  0.09695743  0.43683583    -0.20700
C1051       C  0.22983797  0.09969065  0.39749510    -0.10400
C1052       C  0.23511422  0.11427260  0.38333334    -0.10900
C1053       C  0.23880361  0.12622208  0.40941227    -0.03800
C1054       C  0.23813214  0.12340339  0.44850087    -0.19000
H1055       H  0.28065103  0.10141292  0.62516021     0.10100
H1056       H  0.27492391  0.10375795  0.55776414     0.10200
H1057       H  0.22553298  0.10777138  0.58276320     0.09900
H1058       H  0.23128308  0.10572780  0.65108344     0.11000
H1059       H  0.25708835  0.11471242  0.50886447     0.11100
H1060       H  0.22534532  0.09810863  0.51722249     0.13000
H1061       H  0.22529380  0.08549584  0.44711228     0.09500
H1062       H  0.22690319  0.09024755  0.37822476     0.11600
H1063       H  0.24283725  0.13762591  0.39966015     0.08200
H1064       H  0.24148678  0.13270915  0.46778361     0.10900
C1065       C  0.25485191  0.11274937  0.88235438    -0.03700
C1066       C  0.26276588  0.12287164  0.90738209    -0.06300
C1067       C  0.26218258  0.12040925  0.94652854    -0.21400
C1068       C  0.25335962  0.10802611  0.96195250     0.24400
C1069       C  0.24506512  0.09803349  0.93725896    -0.18900
C1070       C  0.24594979  0.10028377  0.89766654    -0.08900
C1071       C  0.25406939  0.10543701  0.00365808    -0.19200
C1072       C  0.24183379  0.10065235  0.02507705    -0.24000
C1073       C  0.24300743  0.09993940  0.06725511     0.26400
C1074       C  0.23042145  0.10501713  0.08990187    -0.20700
C1075       C  0.23194633  0.10584439  0.12956349    -0.10400
C1076       C  0.24602801  0.10135329  0.14730501    -0.10900
C1077       C  0.25829005  0.09547664  0.12460516    -0.03800
C1078       C  0.25681245  0.09479877  0.08513386    -0.19000
H1079       H  0.26986593  0.13249502  0.89665258     0.10100
H1080       H  0.26874209  0.12820373  0.96491380     0.10200
H1081       H  0.23836745  0.08822029  0.94843608     0.09900
H1082       H  0.23979803  0.09225442  0.87909089     0.11000
H1083       H  0.26483688  0.10898584  0.01778405     0.11100
H1084       H  0.23048417  0.09870873  0.01188262     0.13000
H1085       H  0.21962393  0.10893827  0.07676963     0.09500
H1086       H  0.22227662  0.11038723  0.14619558     0.11600
H1087       H  0.26925115  0.09173931  0.13724630     0.08200
H1088       H  0.26657145  0.09041912  0.06854185     0.10900
C1089       C  0.14287498  0.78339418  0.75980624    -0.03700
C1090       C  0.15850784  0.77880560  0.76607599    -0.06300
C1091       C  0.17040464  0.78999022  0.77005004    -0.21400
C1092       C  0.16712097  0.80612260  0.76771061     0.24400
C1093       C  0.15136886  0.81080279  0.76262228    -0.18900
C1094       C  0.13939218  0.79953682  0.75869145    -0.08900
C1095       C  0.18061647  0.81734883  0.77033252    -0.19200
C1096       C  0.18002282  0.83271840  0.76071655    -0.24000
C1097       C  0.19396671  0.84344615  0.76031167     0.26400
C1098       C  0.19141236  0.85974266  0.75859553    -0.20700
C1099       C  0.20400145  0.87026707  0.75529559    -0.10400
C1100       C  0.21953011  0.86476713  0.75340587    -0.10900
C1101       C  0.22216899  0.84848851  0.75589696    -0.03800
C1102       C  0.20956867  0.83794367  0.75915926    -0.19000
H1103       H  0.16166215  0.76648617  0.76719536     0.10100
H1104       H  0.18233663  0.78596447  0.77417580     0.10200
H1105       H  0.14814690  0.82306743  0.76152816     0.09900
H1106       H  0.12747201  0.80346350  0.75396295     0.11000
H1107       H  0.19168973  0.81242249  0.77959698     0.11100
H1108       H  0.16895036  0.83780755  0.75202834     0.13000
H1109       H  0.17958225  0.86436327  0.75927043     0.09500
H1110       H  0.20152454  0.88273095  0.75351205     0.11600
H1111       H  0.23397336  0.84384459  0.75434817     0.08200
H1112       H  0.21219623  0.82552566  0.75940301     0.10900
C1113       C  0.26727044  0.95233372  0.74378433    -0.03700
C1114       C  0.25430348  0.96165914  0.73405315    -0.06300
C1115       C  0.25543964  0.97801566  0.73407752    -0.21400
C1116       C  0.26948598  0.98553747  0.74426626     0.24400
C1117       C  0.28266174  0.97621902  0.75304636    -0.18900
C1118       C  0.28155181  0.95975758  0.75266562    -0.08900
C1119       C  0.26951879  0.00303723  0.74545842    -0.19200
C1120       C  0.28052294  0.01201376  0.76241168    -0.24000
C1121       C  0.27902074  0.02942316  0.76474873     0.26400
C1122       C  0.29255243  0.03888007  0.76548259    -0.20700
C1123       C  0.29132805  0.05532085  0.76600431    -0.10400
C1124       C  0.27651079  0.06258653  0.76629627    -0.10900
C1125       C  0.26301950  0.05306469  0.76738874    -0.03800
C1126       C  0.26424394  0.03671852  0.76677343    -0.19000
H1127       H  0.24315060  0.95630245  0.72692249     0.10100
H1128       H  0.24513108  0.98484029  0.72691104     0.10200
H1129       H  0.29380717  0.98148405  0.76029803     0.09900
H1130       H  0.29172937  0.95285228  0.76039193     0.11000
H1131       H  0.25953776  0.00881883  0.73236794     0.11100
H1132       H  0.29092584  0.00670025  0.77456692     0.13000
H1133       H  0.30407893  0.03354564  0.76458173     0.09500
H1134       H  0.30195135  0.06232629  0.76526015     0.11600
H1135       H  0.25142262  0.05824591  0.76806588     0.08200
H1136       H  0.25355357  0.02984933  0.76800136     0.10900
C1137       C  0.21217568  0.86284678  0.25069645    -0.03700
C1138       C  0.21605809  0.84773747  0.26382298    -0.06300
C1139       C  0.20489495  0.83570170  0.26419849    -0.21400
C1140       C  0.18957522  0.83830331  0.25101340     0.24400
C1141       C  0.18551470  0.85352754  0.23851767    -0.18900
C1142       C  0.19671907  0.86567974  0.23846325    -0.08900
C1143       C  0.17847196  0.82470470  0.25128049    -0.19200
C1144       C  0.16498374  0.82383810  0.23129849    -0.24000
C1145       C  0.15485581  0.80948245  0.23138626     0.26400
C1146       C  0.13863224  0.81096392  0.22530850    -0.20700
C1147       C  0.12875814  0.79776357  0.22712979    -0.10400
C1148       C  0.13495424  0.78273167  0.23434282    -0.10900
C1149       C  0.15127854  0.78115146  0.23844489    -0.03800
C1150       C  0.16110688  0.79433626  0.23698796    -0.19000
H1151       H  0.22783962  0.84512662  0.27345043     0.10100
H1152       H  0.20836886  0.82416702  0.27421519     0.10200
H1153       H  0.17376790  0.85616221  0.22889012     0.09900
H1154       H  0.19338411  0.87718950  0.22804604     0.11000
H1155       H  0.18192793  0.81465029  0.26836131     0.11100
H1156       H  0.16102520  0.83387020  0.21485617     0.13000
H1157       H  0.13352520  0.82242853  0.22025595     0.09500
H1158       H  0.11623677  0.79936571  0.22359803     0.11600
H1159       H  0.15645180  0.76974695  0.24386093     0.08200
H1160       H  0.17360417  0.79256965  0.24019712     0.10900
C1161       C  0.24222501  0.90507692  0.62864616    -0.03700
C1162       C  0.24093435  0.92078483  0.61652217    -0.06300
C1163       C  0.23899039  0.92437353  0.57805754    -0.21400
C1164       C  0.23797909  0.91235744  0.55102671     0.24400
C1165       C  0.23906166  0.89661827  0.56317745    -0.18900
C1166       C  0.24120569  0.89303018  0.60160573    -0.08900
C1167       C  0.23722222  0.91663277  0.51020130    -0.19200
C1168       C  0.23095985  0.90720229  0.48358246    -0.24000
C1169       C  0.23235899  0.91042343  0.44223423     0.26400
C1170       C  0.22165390  0.90347681  0.41703037    -0.20700
C1171       C  0.22379847  0.90478777  0.37768450    -0.10400
C1172       C  0.23683491  0.91291145  0.36292576    -0.10900
C1173       C  0.24725245  0.92026539  0.38818907    -0.03800
C1174       C  0.24508073  0.91901784  0.42732774    -0.19000
H1175       H  0.24187058  0.93033906  0.63663718     0.10100
H1176       H  0.23842895  0.93658471  0.56932220     0.10200
H1177       H  0.23884666  0.88707175  0.54297702     0.09900
H1178       H  0.24230490  0.88083075  0.61007347     0.11000
H1179       H  0.24200989  0.92798481  0.50196979     0.11100
H1180       H  0.22476310  0.89660598  0.49222600     0.13000
H1181       H  0.21184633  0.89666749  0.42783382     0.09500
H1182       H  0.21567522  0.89885466  0.35892867     0.11600
H1183       H  0.25749588  0.92650316  0.37775888     0.08200
H1184       H  0.25386781  0.92413299  0.44567334     0.10900
C1185       C  0.23558017  0.90083603  0.12636829    -0.03700
C1186       C  0.24018519  0.88829231  0.10300139    -0.06300
C1187       C  0.24119497  0.89020542  0.06387133    -0.21400
C1188       C  0.23730306  0.90454995  0.04689095     0.24400
C1189       C  0.23171768  0.91689602  0.06966418    -0.18900
C1190       C  0.23095237  0.91506981  0.10930288    -0.08900
C1191       C  0.24100042  0.90654052  0.00617770    -0.19200
C1192       C  0.23262193  0.91532083  0.98184295    -0.24000
C1193       C  0.23707068  0.91587591  0.94118133     0.26400
C1194       C  0.22555330  0.91438955  0.91303659    -0.20700
C1195       C  0.22988904  0.91310072  0.87478615    -0.10400
C1196       C  0.24581203  0.91358659  0.86414398    -0.10900
C1197       C  0.25723945  0.91587264  0.89228972    -0.03800
C1198       C  0.25292230  0.91697554  0.93038642    -0.19000
H1199       H  0.24378884  0.87713530  0.11502336     0.10100
H1200       H  0.24550907  0.88054720  0.04683338     0.10200
H1201       H  0.22881872  0.92816329  0.05715201     0.09900
H1202       H  0.22738469  0.92493877  0.12659511     0.11000
H1203       H  0.25072590  0.89963703  0.99520986     0.11100
H1204       H  0.22186518  0.92097482  0.99111562     0.13000
H1205       H  0.21326661  0.91359275  0.92079540     0.09500
H1206       H  0.22081647  0.91149002  0.85364761     0.11600
H1207       H  0.26958813  0.91641477  0.88501467     0.08200
H1208       H  0.26201419  0.91845541  0.95153933     0.10900
C1209       C  0.25640466  0.95312333  0.24063961    -0.03700
C1210       C  0.24304895  0.96208757  0.23196083    -0.06300
C1211       C  0.24345841  0.97848883  0.23379104    -0.21400
C1212       C  0.25714415  0.98648568  0.24481139     0.24400
C1213       C  0.27074354  0.97757084  0.25234408    -0.18900
C1214       C  0.27036386  0.96105799  0.25014902    -0.08900
C1215       C  0.25634989  0.00400728  0.24807159    -0.19200
C1216       C  0.26702637  0.01324064  0.26562517    -0.24000
C1217       C  0.26502948  0.03064406  0.26948422     0.26400
C1218       C  0.27834035  0.04035946  0.27256538    -0.20700
C1219       C  0.27682030  0.05677786  0.27458359    -0.10400
C1220       C  0.26191352  0.06384985  0.27398464    -0.10900
C1221       C  0.24858879  0.05405939  0.27280178    -0.03800
C1222       C  0.25010793  0.03770783  0.27071826    -0.19000
H1223       H  0.23211032  0.95639187  0.22447447     0.10100
H1224       H  0.23283094  0.98495757  0.22746987     0.10200
H1225       H  0.28164689  0.98319254  0.26014685     0.09900
H1226       H  0.28084302  0.95448296  0.25718326     0.11000
H1227       H  0.24605505  0.00953582  0.23583577     0.11100
H1228       H  0.27766603  0.00811926  0.27703230     0.13000
H1229       H  0.28997251  0.03525906  0.27230449     0.09500
H1230       H  0.28733314  0.06394714  0.27543906     0.11600
H1231       H  0.23691069  0.05905359  0.27269011     0.08200
H1232       H  0.23952092  0.03066971  0.27013087     0.10900
C1233       C  0.14166436  0.21728414  0.74951464    -0.03700
C1234       C  0.13834090  0.20157705  0.74025888    -0.06300
C1235       C  0.15000725  0.19006612  0.74303257    -0.21400
C1236       C  0.16523977  0.19402097  0.75483557     0.24400
C1237       C  0.16836977  0.20960694  0.76572798    -0.18900
C1238       C  0.15672565  0.22111138  0.76291453    -0.08900
C1239       C  0.17750850  0.18161094  0.75583357    -0.19200
C1240       C  0.19288746  0.18470163  0.75020075    -0.24000
C1241       C  0.20561082  0.17268085  0.75109175     0.26400
C1242       C  0.22125728  0.17790689  0.75244982    -0.20700
C1243       C  0.23365551  0.16720380  0.75478289    -0.10400
C1244       C  0.23070719  0.15096032  0.75576573    -0.10900
C1245       C  0.21510911  0.14566550  0.75308510    -0.03800
C1246       C  0.20269793  0.15637088  0.75063138    -0.19000
H1247       H  0.12686721  0.19826846  0.72974980     0.10100
H1248       H  0.14724538  0.17810812  0.73491812     0.10200
H1249       H  0.17978215  0.21297124  0.77643767     0.09900
H1250       H  0.15958750  0.23307755  0.77073989     0.11000
H1251       H  0.17351063  0.16964520  0.76017058     0.11100
H1252       H  0.19648074  0.19676736  0.74493530     0.13000
H1253       H  0.22390829  0.19036562  0.75243308     0.09500
H1254       H  0.24553753  0.17168077  0.75665817     0.11600
H1255       H  0.21245780  0.13321007  0.75329680     0.08200
H1256       H  0.19094235  0.15170182  0.74840981     0.10900
C1257       C  0.14300962  0.23639434  0.24112379    -0.03700
C1258       C  0.15866967  0.24069566  0.24799261    -0.06300
C1259       C  0.17032142  0.22920105  0.25136422    -0.21400
C1260       C  0.16664304  0.21316617  0.24767991     0.24400
C1261       C  0.15086058  0.20885127  0.24198227    -0.18900
C1262       C  0.13922042  0.22033484  0.23866584    -0.08900
C1263       C  0.17956853  0.20143102  0.25058731    -0.19200
C1264       C  0.17853630  0.18645465  0.23825443    -0.24000
C1265       C  0.19156759  0.17491306  0.24177002     0.26400
C1266       C  0.18796912  0.15881683  0.24411468    -0.20700
C1267       C  0.19986294  0.14764103  0.24882523    -0.10400
C1268       C  0.21566238  0.15233221  0.25079899    -0.10900
C1269       C  0.21930312  0.16839933  0.24684747    -0.03800
C1270       C  0.20741919  0.17955987  0.24233341    -0.19000
H1271       H  0.16196622  0.25295464  0.25030837     0.10100
H1272       H  0.18232662  0.23287873  0.25627041     0.10200
H1273       H  0.14732495  0.19667083  0.24036127     0.09900
H1274       H  0.12722972  0.21660204  0.23383964     0.11000
H1275       H  0.19046369  0.20545992  0.26321378     0.11100
H1276       H  0.16768440  0.18218999  0.22596988     0.13000
H1277       H  0.17586600  0.15490180  0.24322163     0.09500
H1278       H  0.19666097  0.13536728  0.25159927     0.11600
H1279       H  0.23136869  0.17241627  0.24781472     0.08200
H1280       H  0.21072904  0.19177199  0.23910398     0.10900
C1281       C  0.10320559  0.23896246  0.61774451    -0.03700
C1282       C  0.08772407  0.23767486  0.60429973    -0.06300
C1283       C  0.08448863  0.23903581  0.56546949    -0.21400
C1284       C  0.09664213  0.24142480  0.53911325     0.24400
C1285       C  0.11221369  0.24202289  0.55232509    -0.18900
C1286       C  0.11544225  0.24085105  0.59122814    -0.08900
C1287       C  0.09260245  0.24472968  0.49876059    -0.19200
C1288       C  0.10224904  0.24149109  0.46951212    -0.24000
C1289       C  0.09863963  0.24588376  0.42954736     0.26400
C1290       C  0.10444017  0.23651795  0.40003687    -0.20700
C1291       C  0.10230586  0.24093286  0.36208469    -0.10400
C1292       C  0.09456887  0.25501893  0.35273859    -0.10900
C1293       C  0.08860052  0.26434097  0.38231606    -0.03800
C1294       C  0.09055787  0.25979788  0.42033190    -0.19000
H1295       H  0.07800026  0.23640035  0.62393670     0.10100
H1296       H  0.07239590  0.23862298  0.55606256     0.10200
H1297       H  0.12185240  0.24421759  0.53294992     0.09900
H1298       H  0.12747472  0.24207871  0.60064970     0.11000
H1299       H  0.08115831  0.24980235  0.49297046     0.11100
H1300       H  0.11301065  0.23502059  0.47475054     0.13000
H1301       H  0.11081017  0.22582052  0.40639810     0.09500
H1302       H  0.10717802  0.23353659  0.34007980     0.11600
H1303       H  0.08275917  0.27535007  0.37613453     0.08200
H1304       H  0.08628913  0.26749405  0.44244274     0.10900
C1305       C  0.10411590  0.25433616  0.11644988    -0.03700
C1306       C  0.11751267  0.25415447  0.09308457    -0.06300
C1307       C  0.11636882  0.25014133  0.05471485    -0.21400
C1308       C  0.10179423  0.24647170  0.03846891     0.24400
C1309       C  0.08838659  0.24630436  0.06197789    -0.18900
C1310       C  0.08956225  0.25015396  0.10059735    -0.08900
C1311       C  0.10113408  0.24315165  0.99692893    -0.19200
C1312       C  0.08839637  0.24602423  0.97536266    -0.24000
C1313       C  0.08869258  0.24550967  0.93308174     0.26400
C1314       C  0.07930587  0.25617320  0.91293106    -0.20700
C1315       C  0.08015084  0.25713393  0.87335363    -0.10400
C1316       C  0.09016480  0.24718124  0.85277928    -0.10900
C1317       C  0.09895178  0.23586590  0.87271043    -0.03800
C1318       C  0.09830308  0.23508588  0.91255121    -0.19000
H1319       H  0.12893237  0.25714454  0.10444970     0.10100
H1320       H  0.12690095  0.25024988  0.03741799     0.10200
H1321       H  0.07700923  0.24312831  0.05076101     0.09900
H1322       H  0.07904483  0.25006263  0.11792778     0.11000
H1323       H  0.11203289  0.23985830  0.98304219     0.11100
H1324       H  0.07793390  0.25079230  0.98862606     0.13000
H1325       H  0.07170728  0.26423688  0.92798827     0.09500
H1326       H  0.07315860  0.26591116  0.85887070     0.11600
H1327       H  0.10676105  0.22802270  0.85762280     0.08200
H1328       H  0.10539850  0.22644883  0.92718390     0.10900
C1329       C  0.85388465  0.22176804  0.77239216    -0.03700
C1330       C  0.83896623  0.22655174  0.78491463    -0.06300
C1331       C  0.82674272  0.21572870  0.78868536    -0.21400
C1332       C  0.82900031  0.19988182  0.77955789     0.24400
C1333       C  0.84412620  0.19486486  0.76878372    -0.18900
C1334       C  0.85647394  0.20573684  0.76532015    -0.08900
C1335       C  0.81516478  0.18920001  0.78126722    -0.19200
C1336       C  0.81367885  0.17614847  0.76003918    -0.24000
C1337       C  0.79929061  0.16618218  0.76012158     0.26400
C1338       C  0.80069136  0.15022135  0.75102965    -0.20700
C1339       C  0.78757465  0.14033371  0.75185119    -0.10400
C1340       C  0.77265348  0.14623193  0.76120463    -0.10900
C1341       C  0.77108345  0.16236239  0.76863038    -0.03800
C1342       C  0.78426420  0.17225027  0.76813927    -0.19000
H1343       H  0.83659101  0.23879625  0.79089675     0.10100
H1344       H  0.81529230  0.21988125  0.79750644     0.10200
H1345       H  0.84644865  0.18263429  0.76276005     0.09900
H1346       H  0.86786256  0.20169754  0.75580687     0.11000
H1347       H  0.80548812  0.19276375  0.79936165     0.11100
H1348       H  0.82334662  0.17244901  0.74209114     0.13000
H1349       H  0.81205786  0.14529190  0.74417755     0.09500
H1350       H  0.78917958  0.12797142  0.74576862     0.11600
H1351       H  0.75974634  0.16726252  0.77582817     0.08200
H1352       H  0.78260160  0.18461457  0.77388335     0.10900
C1353       C  0.94238455  0.26679597  0.73632645    -0.03700
C1354       C  0.94907243  0.28167852  0.72946242    -0.06300
C1355       C  0.96530040  0.28331913  0.72381452    -0.21400
C1356       C  0.97519742  0.27012956  0.72436346     0.24400
C1357       C  0.96843436  0.25520902  0.73054446    -0.18900
C1358       C  0.95225951  0.25358066  0.73631967    -0.08900
C1359       C  0.99255772  0.27239111  0.72145320    -0.19200
C1360       C  0.00238042  0.26097997  0.70960155    -0.24000
C1361       C  0.01988020  0.26173742  0.71139783     0.26400
C1362       C  0.02817116  0.24754216  0.70874636    -0.20700
C1363       C  0.04446371  0.24717508  0.71273758    -0.10400
C1364       C  0.05301337  0.26105282  0.71899183    -0.10900
C1365       C  0.04488144  0.27541338  0.72012705    -0.03800
C1366       C  0.02845741  0.27577275  0.71649730    -0.19000
H1367       H  0.94182137  0.29211844  0.72937018     0.10100
H1368       H  0.97017060  0.29495826  0.71945417     0.10200
H1369       H  0.97561660  0.24477382  0.73248437     0.09900
H1370       H  0.94754261  0.24195475  0.74171856     0.11000
H1371       H  0.99723134  0.28363513  0.73041741     0.11100
H1372       H  0.99737973  0.24999716  0.69972920     0.13000
H1373       H  0.02196296  0.23655993  0.70458592     0.09500
H1374       H  0.05036247  0.23592122  0.71147259     0.11600
H1375       H  0.05115981  0.28630414  0.72490924     0.08200
H1376       H  0.02262438  0.28702378  0.71788412     0.10900
C1377       C  0.85033928  0.23327684  0.25236220    -0.03700
C1378       C  0.83424926  0.23688519  0.25290872    -0.06300
C1379       C  0.82299564  0.22488275  0.25505518    -0.21400
C1380       C  0.82754674  0.20903011  0.25708832     0.24400
C1381       C  0.84363121  0.20541248  0.25477037    -0.18900
C1382       C  0.85486415  0.21739173  0.25254121    -0.08900
C1383       C  0.81519028  0.19668904  0.26121109    -0.19200
C1384       C  0.81790687  0.18208683  0.27493817    -0.24000
C1385       C  0.80551891  0.16977787  0.27838788     0.26400
C1386       C  0.80984285  0.15386321  0.27659993    -0.20700
C1387       C  0.79843295  0.14197135  0.27739116    -0.10400
C1388       C  0.78244580  0.14576257  0.28051113    -0.10900
C1389       C  0.77821532  0.16166292  0.28451438    -0.03800
C1390       C  0.78959368  0.17352570  0.28349923    -0.19000
H1391       H  0.83035361  0.24899529  0.25282386     0.10100
H1392       H  0.81068972  0.22802098  0.25620784     0.10200
H1393       H  0.84767456  0.19338061  0.25466441     0.09900
H1394       H  0.86715407  0.21418401  0.25190649     0.11000
H1395       H  0.80335795  0.19993659  0.25302151     0.11100
H1396       H  0.82970102  0.17871017  0.28302313     0.13000
H1397       H  0.82205611  0.15064209  0.27321059     0.09500
H1398       H  0.80208804  0.12986828  0.27413665     0.11600
H1399       H  0.76601153  0.16501836  0.28724241     0.08200
H1400       H  0.78583272  0.18559157  0.28653874     0.10900
C1401       C  0.89165423  0.23877530  0.63831901    -0.03700
C1402       C  0.90670959  0.23675355  0.62272944    -0.06300
C1403       C  0.90872431  0.23540670  0.58334573    -0.21400
C1404       C  0.89575413  0.23584134  0.55877477     0.24400
C1405       C  0.88063989  0.23732917  0.57460396    -0.18900
C1406       C  0.87864161  0.23874307  0.61382952    -0.08900
C1407       C  0.89844147  0.23645807  0.51692591    -0.19200
C1408       C  0.88734835  0.23252726  0.49138936    -0.24000
C1409       C  0.88827981  0.23617264  0.45001693     0.26400
C1410       C  0.90243400  0.23951610  0.43068531    -0.20700
C1411       C  0.90223156  0.24435137  0.39246746    -0.10400
C1412       C  0.88791125  0.24606717  0.37321642    -0.10900
C1413       C  0.87393127  0.24199018  0.39206433    -0.03800
C1414       C  0.87414009  0.23699901  0.42980432    -0.19000
H1415       H  0.91698532  0.23689114  0.64078257     0.10100
H1416       H  0.92049757  0.23444034  0.57193724     0.10200
H1417       H  0.87034047  0.23825306  0.55685196     0.09900
H1418       H  0.86688684  0.24041703  0.62484563     0.11000
H1419       H  0.90961291  0.24113835  0.50729398     0.11100
H1420       H  0.87637773  0.22752721  0.50152802     0.13000
H1421       H  0.91363007  0.23859798  0.44489158     0.09500
H1422       H  0.91318013  0.24731445  0.37846135     0.11600
H1423       H  0.86272080  0.24296067  0.37778283     0.08200
H1424       H  0.86308189  0.23435076  0.44370974     0.10900
C1425       C  0.90333262  0.26124944  0.14113255    -0.03700
C1426       C  0.91431618  0.27045185  0.12117765    -0.06300
C1427       C  0.91687717  0.26814522  0.08238282    -0.21400
C1428       C  0.90837372  0.25676095  0.06217393     0.24400
C1429       C  0.89769641  0.24715492  0.08240112    -0.18900
C1430       C  0.89527907  0.24934905  0.12152696    -0.08900
C1431       C  0.91084977  0.25588747  0.02015110    -0.19200
C1432       C  0.90149709  0.24811487  0.99557640    -0.24000
C1433       C  0.90323869  0.24929911  0.95338475     0.26400
C1434       C  0.89696039  0.23739330  0.93034719    -0.20700
C1435       C  0.89740303  0.23866922  0.89061299    -0.10400
C1436       C  0.90397213  0.25201142  0.87294648    -0.10900
C1437       C  0.91035726  0.26386713  0.89597872    -0.03800
C1438       C  0.90998463  0.26256098  0.93561164    -0.19000
H1439       H  0.92088912  0.27956593  0.13555097     0.10100
H1440       H  0.92529529  0.27561967  0.06786876     0.10200
H1441       H  0.89111396  0.23800222  0.06838714     0.09900
H1442       H  0.88681150  0.24200659  0.13623772     0.11000
H1443       H  0.92061717  0.26265041  0.00883620     0.11100
H1444       H  0.89198107  0.24085325  0.00620499     0.13000
H1445       H  0.89151137  0.22714603  0.94316160     0.09500
H1446       H  0.89218653  0.22941217  0.87376570     0.11600
H1447       H  0.91530784  0.27440673  0.88338793     0.08200
H1448       H  0.91445108  0.27228929  0.95206339     0.10900
C1449       C  0.94094580  0.27554100  0.26408552    -0.03700
C1450       C  0.94841133  0.28967420  0.27405311    -0.06300
C1451       C  0.96477598  0.29104293  0.27200956    -0.21400
C1452       C  0.97401087  0.27842554  0.25945639     0.24400
C1453       C  0.96654623  0.26409764  0.25080008    -0.18900
C1454       C  0.95022770  0.26270943  0.25302039    -0.08900
C1455       C  0.99134043  0.28054781  0.25648831    -0.19200
C1456       C  0.00058330  0.27147898  0.23454338    -0.24000
C1457       C  0.01795390  0.27287222  0.23327089     0.26400
C1458       C  0.02589474  0.28720806  0.23881519    -0.20700
C1459       C  0.04234783  0.28776210  0.23832731    -0.10400
C1460       C  0.05112651  0.27399645  0.23251050    -0.10900
C1461       C  0.04310857  0.25981760  0.22585432    -0.03800
C1462       C  0.02673749  0.25930729  0.22593234    -0.19000
H1463       H  0.94159320  0.29976323  0.28277670     0.10100
H1464       H  0.97021836  0.30213033  0.27943667     0.10200
H1465       H  0.97317980  0.25385490  0.24251431     0.09900
H1466       H  0.94485620  0.25163322  0.24522687     0.11000
H1467       H  0.99659575  0.28994719  0.27294071     0.11100
H1468       H  0.99542897  0.26209154  0.21794716     0.13000
H1469       H  0.01945780  0.29798588  0.24342432     0.09500
H1470       H  0.04818569  0.29886760  0.24344254     0.11600
H1471       H  0.04949636  0.24900152  0.22116807     0.08200
H1472       H  0.02090446  0.24815848  0.22122370     0.10900
C1473       C  0.70866094  0.85563636  0.70557343    -0.03700
C1474       C  0.70480084  0.84148652  0.72417575    -0.06300
C1475       C  0.69574797  0.83006911  0.70579051    -0.21400
C1476       C  0.69060261  0.83247476  0.66836375     0.24400
C1477       C  0.69488478  0.84644407  0.64944484    -0.18900
C1478       C  0.70382198  0.85785502  0.66782513    -0.08900
C1479       C  0.67962420  0.82102761  0.65086217    -0.19200
C1480       C  0.67837308  0.81931837  0.61300866    -0.24000
C1481       C  0.66597843  0.80987399  0.59424647     0.26400
C1482       C  0.66850422  0.80496849  0.55678406    -0.20700
C1483       C  0.65657917  0.79758669  0.53639739    -0.10400
C1484       C  0.64173170  0.79512838  0.55286461    -0.10900
C1485       C  0.63924878  0.79973155  0.59068891    -0.03800
C1486       C  0.65125936  0.80703900  0.61123984    -0.19000
H1487       H  0.70825063  0.83949728  0.75339167     0.10100
H1488       H  0.69248299  0.81947589  0.72107757     0.10200
H1489       H  0.69075319  0.84898050  0.62104399     0.09900
H1490       H  0.70650770  0.86866990  0.65279578     0.11000
H1491       H  0.67232263  0.81399470  0.66970121     0.11100
H1492       H  0.68677561  0.82521172  0.59457148     0.13000
H1493       H  0.67968013  0.80712194  0.54296215     0.09500
H1494       H  0.65889797  0.79416482  0.50733204     0.11600
H1495       H  0.62793442  0.79798029  0.60414301     0.08200
H1496       H  0.64874506  0.81100865  0.63975172     0.10900
C1497       C  0.68642651  0.88400210  0.32238290    -0.03700
C1498       C  0.68727993  0.87974855  0.36097367    -0.06300
C1499       C  0.67432371  0.87313404  0.37965305    -0.21400
C1500       C  0.66027552  0.87022373  0.36009901     0.24400
C1501       C  0.65903532  0.87540055  0.32212669    -0.18900
C1502       C  0.67197399  0.88231403  0.30353828    -0.08900
C1503       C  0.64769464  0.86096427  0.37977648    -0.19200
C1504       C  0.63827547  0.85064085  0.36165818    -0.24000
C1505       C  0.62862723  0.83846698  0.38185055     0.26400
C1506       C  0.62255513  0.84059666  0.41874486    -0.20700
C1507       C  0.61519072  0.82809448  0.43813285    -0.10400
C1508       C  0.61384444  0.81318650  0.42120886    -0.10900
C1509       C  0.61903345  0.81143066  0.38349555    -0.03800
C1510       C  0.62617970  0.82393478  0.36403375    -0.19000
H1511       H  0.69824788  0.88082749  0.37627830     0.10100
H1512       H  0.67560031  0.86941834  0.40895898     0.10200
H1513       H  0.64825479  0.87371140  0.30644659     0.09900
H1514       H  0.67098269  0.88533038  0.27371971     0.11000
H1515       H  0.64778687  0.86098218  0.41062344     0.11100
H1516       H  0.63930585  0.84957845  0.33101470     0.13000
H1517       H  0.62381527  0.85175994  0.43302590     0.09500
H1518       H  0.61137447  0.82985874  0.46716607     0.11600
H1519       H  0.61821124  0.80014519  0.36952425     0.08200
H1520       H  0.63057333  0.82196331  0.33554559     0.10900
C1521       C  0.58633094  0.75812045  0.87973342    -0.03700
C1522       C  0.57834727  0.77005657  0.86003242    -0.06300
C1523       C  0.57644949  0.76931821  0.82073596    -0.21400
C1524       C  0.58265249  0.75677202  0.79984352     0.24400
C1525       C  0.59054939  0.74467617  0.81945421    -0.18900
C1526       C  0.59232758  0.74534324  0.85907647    -0.08900
C1527       C  0.58044211  0.75698536  0.75788096    -0.19200
C1528       C  0.58970799  0.74939479  0.73286813    -0.24000
C1529       C  0.58855602  0.75155769  0.69081545     0.26400
C1530       C  0.59571989  0.74052728  0.66678167    -0.20700
C1531       C  0.59603098  0.74283328  0.62732619    -0.10400
C1532       C  0.58934800  0.75636219  0.61106420    -0.10900
C1533       C  0.58190622  0.76723504  0.63495802    -0.03800
C1534       C  0.58152603  0.76490980  0.67426327    -0.19000
H1535       H  0.57356055  0.78006485  0.87499021     0.10100
H1536       H  0.57028516  0.77877168  0.80647930     0.10200
H1537       H  0.59521554  0.73463306  0.80451771     0.09900
H1538       H  0.59854954  0.73597163  0.87346498     0.11000
H1539       H  0.57113080  0.76448047  0.74734974     0.11100
H1540       H  0.59889535  0.74170309  0.74329829     0.13000
H1541       H  0.60134099  0.73021047  0.67864190     0.09500
H1542       H  0.60195249  0.73428719  0.60969215     0.11600
H1543       H  0.57667648  0.77780264  0.62334085     0.08200
H1544       H  0.57627191  0.77400385  0.69137812     0.10900
C1545       C  0.59719806  0.74030862  0.11248927    -0.03700
C1546       C  0.58174873  0.73902716  0.12635722    -0.06300
C1547       C  0.57890011  0.73738063  0.16542322    -0.21400
C1548       C  0.59141349  0.73670697  0.19127835     0.24400
C1549       C  0.60686792  0.73754652  0.17716653    -0.18900
C1550       C  0.60970047  0.73929750  0.13831999    -0.08900
C1551       C  0.58818153  0.73681471  0.23286964    -0.19200
C1552       C  0.59839525  0.73088586  0.25830875    -0.24000
C1553       C  0.59797561  0.73416006  0.29975881     0.26400
C1554       C  0.61219581  0.73321979  0.31959178    -0.20700
C1555       C  0.61311928  0.73776610  0.35746859    -0.10400
C1556       C  0.59975474  0.74309187  0.37684965    -0.10900
C1557       C  0.58524876  0.74318963  0.35792403    -0.03800
C1558       C  0.58436143  0.73886381  0.31949411    -0.19000
H1559       H  0.57185339  0.73997250  0.10722746     0.10100
H1560       H  0.56689405  0.73697733  0.17556771     0.10200
H1561       H  0.61684150  0.73767076  0.19612740     0.09900
H1562       H  0.62173047  0.74043429  0.12867320     0.11000
H1563       H  0.57769064  0.74282827  0.24245148     0.11100
H1564       H  0.60858667  0.72457356  0.24788773     0.13000
H1565       H  0.62283312  0.72953315  0.30527962     0.09500
H1566       H  0.62442080  0.73736405  0.37148855     0.11600
H1567       H  0.57475980  0.74717066  0.37237231     0.08200
H1568       H  0.57310769  0.73937532  0.30540474     0.10900
C1569       C  0.70003675  0.85968849  0.18922450    -0.03700
C1570       C  0.69788894  0.86328548  0.15059598    -0.06300
C1571       C  0.68646438  0.85544265  0.12933714    -0.21400
C1572       C  0.67670147  0.84414756  0.14646347     0.24400
C1573       C  0.67937907  0.83998164  0.18464364    -0.18900
C1574       C  0.69096963  0.84765244  0.20575755    -0.08900
C1575       C  0.66386816  0.83697815  0.12376177    -0.19200
C1576       C  0.65023633  0.83202283  0.13928013    -0.24000
C1577       C  0.63758159  0.82423886  0.11718142     0.26400
C1578       C  0.62807599  0.81306762  0.13559137    -0.20700
C1579       C  0.61745821  0.80394287  0.11494018    -0.10400
C1580       C  0.61581137  0.80614238  0.07561748    -0.10900
C1581       C  0.62423798  0.81831739  0.05774738    -0.03800
C1582       C  0.63511392  0.82724939  0.07828449    -0.19000
H1583       H  0.70477801  0.87245064  0.13706026     0.10100
H1584       H  0.68482944  0.85864934  0.09979933     0.10200
H1585       H  0.67247860  0.83089571  0.19837858     0.09900
H1586       H  0.69237054  0.84462297  0.23547099     0.11000
H1587       H  0.66563264  0.83614620  0.09329167     0.11100
H1588       H  0.64853057  0.83293222  0.16976204     0.13000
H1589       H  0.62959321  0.81067763  0.16561523     0.09500
H1590       H  0.61127036  0.79447442  0.12921772     0.11600
H1591       H  0.62342508  0.82002719  0.02729005     0.08200
H1592       H  0.64187143  0.83612959  0.06340960     0.10900
C1593       C  0.69175541  0.88216789  0.83297252    -0.03700
C1594       C  0.67707354  0.87940944  0.81610238    -0.06300
C1595       C  0.66615203  0.86948457  0.83385202    -0.21400
C1596       C  0.66983167  0.86208276  0.86839824     0.24400
C1597       C  0.68378333  0.86619029  0.88710172    -0.18900
C1598       C  0.69462160  0.87615907  0.86957581    -0.08900
C1599       C  0.65942211  0.84949842  0.88322254    -0.19200
C1600       C  0.66515382  0.83671342  0.90123664    -0.24000
C1601       C  0.65532420  0.82343858  0.91505061     0.26400
C1602       C  0.66122653  0.81363767  0.94387246    -0.20700
C1603       C  0.65206332  0.80144882  0.95894792    -0.10400
C1604       C  0.63688243  0.79869511  0.94501118    -0.10900
C1605       C  0.63131454  0.80798716  0.91478422    -0.03800
C1606       C  0.64041087  0.82020921  0.89993855    -0.19000
H1607       H  0.67452132  0.88386781  0.78793138     0.10100
H1608       H  0.65530246  0.86671464  0.81931334     0.10200
H1609       H  0.68662770  0.86123158  0.91459654     0.09900
H1610       H  0.70574030  0.87824364  0.88358498     0.11000
H1611       H  0.64698584  0.85046107  0.87717384     0.11100
H1612       H  0.67768689  0.83590874  0.90648764     0.13000
H1613       H  0.67279579  0.81572275  0.95557597     0.09500
H1614       H  0.65667396  0.79450739  0.98221939     0.11600
H1615       H  0.61967351  0.80615006  0.90327061     0.08200
H1616       H  0.63565958  0.82704109  0.87672325     0.10900
C1617       C  0.43937516  0.77654896  0.52985663    -0.03700
C1618       C  0.44672280  0.79109092  0.53667902    -0.06300
C1619       C  0.46308853  0.79265503  0.53379514    -0.21400
C1620       C  0.47251969  0.77980580  0.52356080     0.24400
C1621       C  0.46519089  0.76511472  0.51812884    -0.18900
C1622       C  0.44886220  0.76354133  0.52113891    -0.08900
C1623       C  0.48990107  0.78206601  0.51958259    -0.19200
C1624       C  0.49908566  0.77257552  0.49837742    -0.24000
C1625       C  0.51656017  0.77377653  0.49483548     0.26400
C1626       C  0.52462692  0.76066553  0.48073123    -0.20700
C1627       C  0.54097708  0.76063564  0.47801399    -0.10400
C1628       C  0.54983868  0.77382151  0.48884272    -0.10900
C1629       C  0.54184327  0.78726898  0.50152566    -0.03800
C1630       C  0.52534921  0.78724773  0.50466148    -0.19000
H1631       H  0.43979681  0.80136824  0.54342899     0.10100
H1632       H  0.46836991  0.80405695  0.53870637     0.10200
H1633       H  0.47196817  0.75472723  0.51173706     0.09900
H1634       H  0.44363845  0.75214880  0.51580177     0.11000
H1635       H  0.49511367  0.79195310  0.53428586     0.11100
H1636       H  0.49361337  0.76296828  0.48313838     0.13000
H1637       H  0.51826173  0.75016516  0.47263272     0.09500
H1638       H  0.54674579  0.75007402  0.46814179     0.11600
H1639       H  0.54836274  0.79755274  0.51040997     0.08200
H1640       H  0.51962339  0.79773790  0.51489053     0.10900
C1641       C  0.35136550  0.80345983  0.45922613    -0.03700
C1642       C  0.35571756  0.80778801  0.42211410    -0.06300
C1643       C  0.34503359  0.81525611  0.39814623    -0.21400
C1644       C  0.32980745  0.81870972  0.41072687     0.24400
C1645       C  0.32531369  0.81412928  0.44767447    -0.18900
C1646       C  0.33602101  0.80661087  0.47169528    -0.08900
C1647       C  0.31907489  0.82700715  0.38424451    -0.19200
C1648       C  0.30662623  0.83549967  0.39566316    -0.24000
C1649       C  0.29699614  0.84508085  0.36918550     0.26400
C1650       C  0.28886608  0.85808511  0.38360835    -0.20700
C1651       C  0.28055695  0.86806186  0.35934114    -0.10400
C1652       C  0.28002629  0.86508264  0.32016531    -0.10900
C1653       C  0.28753241  0.85166818  0.30588487    -0.03800
C1654       C  0.29592680  0.84173924  0.33012485    -0.19000
H1655       H  0.36741578  0.80543164  0.41152316     0.10100
H1656       H  0.34876187  0.81853568  0.36975106     0.10200
H1657       H  0.31354205  0.81612888  0.45806507     0.09900
H1658       H  0.33228136  0.80327558  0.50002937     0.11000
H1659       H  0.32237761  0.82709530  0.35446402     0.11100
H1660       H  0.30415133  0.83663206  0.42576498     0.13000
H1661       H  0.28932002  0.86080140  0.41362707     0.09500
H1662       H  0.27472999  0.87823633  0.37116659     0.11600
H1663       H  0.28725125  0.84905517  0.27580242     0.08200
H1664       H  0.30153795  0.83151791  0.31807360     0.10900
C1665       C  0.30815916  0.89074406  0.68488751    -0.03700
C1666       C  0.32216171  0.88868558  0.70538669    -0.06300
C1667       C  0.33530208  0.88185857  0.68816802    -0.21400
C1668       C  0.33470239  0.87707184  0.64998519     0.24400
C1669       C  0.32118395  0.88043467  0.62871257    -0.18900
C1670       C  0.30798052  0.88703698  0.64604464    -0.08900
C1671       C  0.34732975  0.86755245  0.63208515    -0.19200
C1672       C  0.35616742  0.85721363  0.65181005    -0.24000
C1673       C  0.36561638  0.84470425  0.63319463     0.26400
C1674       C  0.36740318  0.83024719  0.65205947    -0.20700
C1675       C  0.37376770  0.81729321  0.63321643    -0.10400
C1676       C  0.37875541  0.81861789  0.59526325    -0.10900
C1677       C  0.37836577  0.83346210  0.57759256    -0.03800
C1678       C  0.37181886  0.84638743  0.59631310    -0.19000
H1679       H  0.32264447  0.89138290  0.73540565     0.10100
H1680       H  0.34570287  0.87989946  0.70511240     0.10200
H1681       H  0.32047608  0.87704433  0.59913271     0.09900
H1682       H  0.29737412  0.88851736  0.62950622     0.11000
H1683       H  0.34768907  0.86737710  0.60126522     0.11100
H1684       H  0.35465558  0.85633759  0.68237788     0.13000
H1685       H  0.36293924  0.82868071  0.68067048     0.09500
H1686       H  0.37399999  0.80603519  0.64767539     0.11600
H1687       H  0.38214828  0.83486628  0.54838014     0.08200
H1688       H  0.37115406  0.85750056  0.58137264     0.10900
C1689       C  0.38780095  0.74949605  0.64025947    -0.03700
C1690       C  0.40288634  0.74669822  0.65488254    -0.06300
C1691       C  0.40501440  0.74369505  0.69373180    -0.21400
C1692       C  0.39211195  0.74314122  0.71861785     0.24400
C1693       C  0.37697795  0.74552912  0.70366664    -0.18900
C1694       C  0.37487573  0.74866093  0.66502725    -0.08900
C1695       C  0.39484546  0.74167287  0.76031139    -0.19200
C1696       C  0.38380581  0.73625879  0.78458979    -0.24000
C1697       C  0.38461549  0.73767589  0.82672928     0.26400
C1698       C  0.37046487  0.73681823  0.84708774    -0.20700
C1699       C  0.37008158  0.73968240  0.88605541    -0.10400
C1700       C  0.38390246  0.74324113  0.90593648    -0.10900
C1701       C  0.39825402  0.74325426  0.88617512    -0.03800
C1702       C  0.39862440  0.74054946  0.84685450    -0.19000
H1703       H  0.41309342  0.74741658  0.63658111     0.10100
H1704       H  0.41680520  0.74209686  0.70452158     0.10200
H1705       H  0.36674894  0.74575334  0.72187385     0.09900
H1706       H  0.36310726  0.75085073  0.65471392     0.11000
H1707       H  0.40596448  0.74596646  0.77105946     0.11100
H1708       H  0.37294525  0.73162480  0.77305379     0.13000
H1709       H  0.35951392  0.73452110  0.83252051     0.09500
H1710       H  0.35884363  0.73948360  0.90050414     0.11600
H1711       H  0.40909015  0.74596409  0.90080579     0.08200
H1712       H  0.40984198  0.74092813  0.83247971     0.10900
C1713       C  0.40208716  0.76228609  0.40632957    -0.03700
C1714       C  0.41256626  0.77219227  0.38672457    -0.06300
C1715       C  0.41444899  0.77097584  0.34748455    -0.21400
C1716       C  0.40578717  0.75997693  0.32656329     0.24400
C1717       C  0.39582228  0.74948592  0.34637832    -0.18900
C1718       C  0.39403904  0.75062479  0.38595080    -0.08900
C1719       C  0.40733616  0.76040030  0.28433374    -0.19200
C1720       C  0.39726903  0.75355994  0.25992987    -0.24000
C1721       C  0.39840310  0.75561650  0.21795048     0.26400
C1722       C  0.39246690  0.74380404  0.19426401    -0.20700
C1723       C  0.39275796  0.74557822  0.15472889    -0.10400
C1724       C  0.39877844  0.75935801  0.13788599    -0.10900
C1725       C  0.40461282  0.77126748  0.16159845    -0.03800
C1726       C  0.40444744  0.76942746  0.20116355    -0.19000
H1727       H  0.41912483  0.78115914  0.40165954     0.10100
H1728       H  0.42236846  0.77906269  0.33323486     0.10200
H1729       H  0.38926264  0.74050487  0.33166511     0.09900
H1730       H  0.38597363  0.74275064  0.40038663     0.11000
H1731       H  0.41694983  0.76734531  0.27281304     0.11100
H1732       H  0.38780221  0.74622746  0.27056728     0.13000
H1733       H  0.38754457  0.73315910  0.20642101     0.09500
H1734       H  0.38793356  0.73627070  0.13737716     0.11600
H1735       H  0.40906586  0.78214447  0.14961336     0.08200
H1736       H  0.40860664  0.77905045  0.21845796     0.10900
C1737       C  0.43740645  0.77209191  0.00173722    -0.03700
C1738       C  0.44510234  0.75877461  0.98749275    -0.06300
C1739       C  0.46142227  0.75856422  0.98353381    -0.21400
C1740       C  0.47058061  0.77150135  0.99452869     0.24400
C1741       C  0.46287253  0.78509926  0.00766225    -0.18900
C1742       C  0.44640891  0.78540922  0.01097071    -0.08900
C1743       C  0.48802131  0.77005531  0.99174100    -0.19200
C1744       C  0.49840711  0.77841223  0.01251767    -0.24000
C1745       C  0.51575038  0.77562165  0.01134990     0.26400
C1746       C  0.52608012  0.78774633  0.02194342    -0.20700
C1747       C  0.54241034  0.78556566  0.02069136    -0.10400
C1748       C  0.54880197  0.77109646  0.00930592    -0.10900
C1749       C  0.53845012  0.75880275  0.00000033    -0.03800
C1750       C  0.52217839  0.76100009  0.00107526    -0.19000
H1751       H  0.43847772  0.74836569  0.97994627     0.10100
H1752       H  0.46696636  0.74800560  0.97291127     0.10200
H1753       H  0.46946292  0.79546753  0.01546664     0.09900
H1754       H  0.44077559  0.79581885  0.02211961     0.11000
H1755       H  0.49238998  0.76106653  0.97271730     0.11100
H1756       H  0.49418155  0.78759220  0.03119785     0.13000
H1757       H  0.52150051  0.79905128  0.03056098     0.09500
H1758       H  0.55002526  0.79527954  0.02813800     0.11600
H1759       H  0.54292199  0.74746156  0.99134756     0.08200
H1760       H  0.51473089  0.75110929  0.99421796     0.10900
C1761       C  0.37212420  0.81024488  0.94265551    -0.03700
C1762       C  0.36813207  0.80715064  0.90465909    -0.06300
C1763       C  0.35828173  0.81733011  0.88456192    -0.21400
C1764       C  0.35215971  0.83078022  0.90220457     0.24400
C1765       C  0.35726988  0.83458674  0.93896501    -0.18900
C1766       C  0.36712447  0.82438045  0.95912021    -0.08900
C1767       C  0.34001269  0.84073034  0.88380368    -0.19200
C1768       C  0.32890561  0.83488445  0.86038967    -0.24000
C1769       C  0.31596545  0.84450066  0.84397202     0.26400
C1770       C  0.30845914  0.83935925  0.81072203    -0.20700
C1771       C  0.29686054  0.84855713  0.79335386    -0.10400
C1772       C  0.29239481  0.86301068  0.80921660    -0.10900
C1773       C  0.29922120  0.86765477  0.84373603    -0.03800
C1774       C  0.31082490  0.85851913  0.86094885    -0.19000
H1775       H  0.37180184  0.79630617  0.89132835     0.10100
H1776       H  0.35505892  0.81436295  0.85574059     0.10200
H1777       H  0.35282913  0.84497627  0.95301232     0.09900
H1778       H  0.36970890  0.82689237  0.98860151     0.11000
H1779       H  0.33975965  0.85302366  0.89174975     0.11100
H1780       H  0.32925604  0.82254053  0.85274149     0.13000
H1781       H  0.31195399  0.82845009  0.79743975     0.09500
H1782       H  0.29181267  0.84462222  0.76681507     0.11600
H1783       H  0.29598057  0.87865872  0.85692349     0.08200
H1784       H  0.31573000  0.86257683  0.88746400     0.10900
C1785       C  0.29928787  0.88829902  0.19082381    -0.03700
C1786       C  0.31146048  0.88247348  0.21376182    -0.06300
C1787       C  0.32236915  0.87182947  0.19889085    -0.21400
C1788       C  0.32120315  0.86684458  0.16102396     0.24400
C1789       C  0.31014400  0.87408960  0.13712651    -0.18900
C1790       C  0.29925873  0.88467096  0.15194595    -0.08900
C1791       C  0.33094973  0.85348351  0.14770847    -0.19200
C1792       C  0.32539927  0.84280724  0.12278773    -0.24000
C1793       C  0.33431481  0.82896291  0.10869662     0.26400
C1794       C  0.34788364  0.82319877  0.12670434    -0.20700
C1795       C  0.35623613  0.81065071  0.11101023    -0.10400
C1796       C  0.35118191  0.80351401  0.07718466    -0.10900
C1797       C  0.33721754  0.80876296  0.06028922    -0.03800
C1798       C  0.32888017  0.82130929  0.07594553    -0.19000
H1799       H  0.31162607  0.88489137  0.24394706     0.10100
H1800       H  0.33097075  0.86660055  0.21768820     0.10200
H1801       H  0.30940051  0.87103828  0.10736668     0.09900
H1802       H  0.29002889  0.88905138  0.13363405     0.11000
H1803       H  0.34246464  0.85208801  0.16028096     0.11100
H1804       H  0.31363502  0.84433825  0.11154406     0.13000
H1805       H  0.35221574  0.82833395  0.15268010     0.09500
H1806       H  0.36691438  0.80681570  0.12485249     0.11600
H1807       H  0.33304456  0.80359174  0.03411438     0.08200
H1808       H  0.31836649  0.82535843  0.06170778     0.10900
C1809       C  0.80086184  0.36563657  0.56322596    -0.03700
C1810       C  0.80393966  0.36971561  0.60114280    -0.06300
C1811       C  0.81532038  0.36164711  0.62208666    -0.21400
C1812       C  0.82407531  0.34953078  0.60544847     0.24400
C1813       C  0.82055561  0.34500748  0.56798216    -0.18900
C1814       C  0.80905839  0.35297661  0.54713840    -0.08900
C1815       C  0.83645158  0.34164275  0.62835297    -0.19200
C1816       C  0.84908147  0.33455704  0.61294963    -0.24000
C1817       C  0.86064848  0.32547249  0.63571121     0.26400
C1818       C  0.86807631  0.31259533  0.61870039    -0.20700
C1819       C  0.87706385  0.30223598  0.64047593    -0.10400
C1820       C  0.87906629  0.30473731  0.67958444    -0.10900
C1821       C  0.87303005  0.31850052  0.69585083    -0.03800
C1822       C  0.86382200  0.32877843  0.67412821    -0.19000
H1823       H  0.79779842  0.37939244  0.61438521     0.10100
H1824       H  0.81760548  0.36518085  0.65108425     0.10200
H1825       H  0.82661162  0.33532367  0.55464081     0.09900
H1826       H  0.80695628  0.34954604  0.51799357     0.11000
H1827       H  0.83502945  0.34176361  0.65898877     0.11100
H1828       H  0.85048863  0.33443569  0.58231044     0.13000
H1829       H  0.86604114  0.30992806  0.58904691     0.09500
H1830       H  0.88155226  0.29166878  0.62730173     0.11600
H1831       H  0.87428355  0.32061857  0.72601628     0.08200
H1832       H  0.85876688  0.33894353  0.68781913     0.10900
C1833       C  0.81517536  0.39117344  0.43214979    -0.03700
C1834       C  0.81483329  0.38851579  0.39282651    -0.06300
C1835       C  0.82777697  0.38196646  0.37436840    -0.21400
C1836       C  0.84117832  0.37758766  0.39494903     0.24400
C1837       C  0.84203688  0.38146524  0.43374511    -0.18900
C1838       C  0.82914365  0.38828095  0.45213711    -0.08900
C1839       C  0.85324330  0.36782365  0.37560085    -0.19200
C1840       C  0.86141400  0.35648844  0.39374462    -0.24000
C1841       C  0.86992958  0.34373496  0.37344000     0.26400
C1842       C  0.87120876  0.32897813  0.39118304    -0.20700
C1843       C  0.87682031  0.31597318  0.37116173    -0.10400
C1844       C  0.88155952  0.31750516  0.33307894    -0.10900
C1845       C  0.88154489  0.33253924  0.31630326    -0.03800
C1846       C  0.87575951  0.34553045  0.33621998    -0.19000
H1847       H  0.80421888  0.39066387  0.37674519     0.10100
H1848       H  0.82687736  0.37930002  0.34438077     0.10200
H1849       H  0.85238312  0.37869806  0.45022125     0.09900
H1850       H  0.82969054  0.39015305  0.48252848     0.11000
H1851       H  0.85350787  0.36832525  0.34479724     0.11100
H1852       H  0.85994439  0.35509226  0.42421846     0.13000
H1853       H  0.86698953  0.32728335  0.41996546     0.09500
H1854       H  0.87673928  0.30456496  0.38492565     0.11600
H1855       H  0.88510702  0.33410692  0.28697760     0.08200
H1856       H  0.87546318  0.35681718  0.32199091     0.10900
C1857       C  0.74809150  0.41415075  0.87866911    -0.03700
C1858       C  0.75963716  0.42332613  0.86055482    -0.06300
C1859       C  0.75953751  0.42540802  0.82121972    -0.21400
C1860       C  0.74803290  0.41824414  0.79860311     0.24400
C1861       C  0.73620420  0.40929631  0.81670188    -0.18900
C1862       C  0.73622188  0.40732978  0.85640001    -0.08900
C1863       C  0.74924591  0.42042541  0.75655230    -0.19200
C1864       C  0.74185215  0.41156905  0.73028318    -0.24000
C1865       C  0.74513315  0.41284656  0.68858329     0.26400
C1866       C  0.73421362  0.40678656  0.66251138    -0.20700
C1867       C  0.73750688  0.40663625  0.62340816    -0.10400
C1868       C  0.75189271  0.41243746  0.60948711    -0.10900
C1869       C  0.76267442  0.41876033  0.63549181    -0.03800
C1870       C  0.75940297  0.41890807  0.67441991    -0.19000
H1871       H  0.76892436  0.42881712  0.87679838     0.10100
H1872       H  0.76875389  0.43241890  0.80830166     0.10200
H1873       H  0.72693659  0.40379467  0.80055835     0.09900
H1874       H  0.72718386  0.40017314  0.86955063     0.11000
H1875       H  0.75728183  0.42951203  0.74697110     0.11100
H1876       H  0.73342685  0.40273902  0.73926436     0.13000
H1877       H  0.72319542  0.40190739  0.67250030     0.09500
H1878       H  0.72897853  0.40156943  0.60422398     0.11600
H1879       H  0.77393633  0.42318813  0.62590334     0.08200
H1880       H  0.76844415  0.42320064  0.69321968     0.10900
C1881       C  0.72994589  0.40018581  0.11077081    -0.03700
C1882       C  0.73132832  0.41522884  0.12682495    -0.06300
C1883       C  0.73047844  0.41719710  0.16630066    -0.21400
C1884       C  0.72822952  0.40418768  0.19041833     0.24400
C1885       C  0.72541023  0.38938064  0.17395237    -0.18900
C1886       C  0.72645359  0.38738539  0.13464108    -0.08900
C1887       C  0.72989615  0.40619034  0.23235247    -0.19200
C1888       C  0.73531232  0.39448746  0.25470642    -0.24000
C1889       C  0.73919374  0.39571466  0.29588772     0.26400
C1890       C  0.74755875  0.38322131  0.31217100    -0.20700
C1891       C  0.75159836  0.38330628  0.35046534    -0.10400
C1892       C  0.74735457  0.39590499  0.37399479    -0.10900
C1893       C  0.73900924  0.40855370  0.35794274    -0.03800
C1894       C  0.73491771  0.40846705  0.31920069    -0.19000
H1895       H  0.73401274  0.42532540  0.10910680     0.10100
H1896       H  0.73243271  0.42876974  0.17811493     0.10200
H1897       H  0.72282608  0.37918868  0.19136116     0.09900
H1898       H  0.72504417  0.37570139  0.12301166     0.11000
H1899       H  0.72813877  0.41783020  0.24402949     0.11100
H1900       H  0.73813990  0.38333612  0.24152079     0.13000
H1901       H  0.75106595  0.37325160  0.29509528     0.09500
H1902       H  0.75809910  0.37339144  0.36161095     0.11600
H1903       H  0.73555704  0.41843347  0.37534612     0.08200
H1904       H  0.72831953  0.41826461  0.30795391     0.10900
C1905       C  0.79569168  0.38459950  0.07628401    -0.03700
C1906       C  0.81091477  0.38240248  0.06192229    -0.06300
C1907       C  0.82199647  0.37394397  0.08293403    -0.21400
C1908       C  0.81798795  0.36746467  0.11837582     0.24400
C1909       C  0.80324878  0.37091134  0.13420270    -0.18900
C1910       C  0.79219827  0.37937455  0.11329135    -0.08900
C1911       C  0.82900330  0.35639858  0.13695268    -0.19200
C1912       C  0.82394783  0.34372455  0.15661822    -0.24000
C1913       C  0.83448985  0.33143573  0.17230127     0.26400
C1914       C  0.84970291  0.32886063  0.15800955    -0.20700
C1915       C  0.85922526  0.31718373  0.17370598    -0.10400
C1916       C  0.85376462  0.30780589  0.20390366    -0.10900
C1917       C  0.83840508  0.31004803  0.21738644    -0.03800
C1918       C  0.82884838  0.32167098  0.20154231    -0.19000
H1919       H  0.81389641  0.38618563  0.03339272     0.10100
H1920       H  0.83337211  0.37158752  0.07041906     0.10200
H1921       H  0.80003623  0.36661270  0.16213973     0.09900
H1922       H  0.78059629  0.38104473  0.12523625     0.11000
H1923       H  0.84143144  0.35816430  0.13175849     0.11100
H1924       H  0.81143529  0.34207473  0.16113723     0.13000
H1925       H  0.85431634  0.33569384  0.13456375     0.09500
H1926       H  0.87101607  0.31574964  0.16271734     0.11600
H1927       H  0.83385828  0.30300779  0.24064233     0.08200
H1928       H  0.81709356  0.32324114  0.21267750     0.10900
C1929       C  0.85447740  0.29141687  0.81807054    -0.03700
C1930       C  0.85810865  0.29537117  0.85578633    -0.06300
C1931       C  0.84738387  0.30373424  0.87791813    -0.21400
C1932       C  0.83297148  0.30852005  0.86261635     0.24400
C1933       C  0.82911808  0.30412034  0.82531663    -0.18900
C1934       C  0.83976940  0.29564339  0.80329959    -0.08900
C1935       C  0.82226144  0.31818258  0.88605655    -0.19200
C1936       C  0.81283300  0.32918577  0.87079740    -0.24000
C1937       C  0.80299707  0.33984988  0.89391866     0.26400
C1938       C  0.79954617  0.35483681  0.87954686    -0.20700
C1939       C  0.79063868  0.36538853  0.90079940    -0.10400
C1940       C  0.78479116  0.36107037  0.93673308    -0.10900
C1941       C  0.78785311  0.34588721  0.95067734    -0.03800
C1942       C  0.79688483  0.33536557  0.92950167    -0.19000
H1943       H  0.86929446  0.29213956  0.86808029     0.10100
H1944       H  0.85052423  0.30684287  0.90674602     0.10200
H1945       H  0.81788559  0.30718994  0.81309789     0.09900
H1946       H  0.83657868  0.29263526  0.77445472     0.11000
H1947       H  0.82316714  0.31712018  0.91673164     0.11100
H1948       H  0.81323365  0.33133464  0.84036530     0.13000
H1949       H  0.80401783  0.35850626  0.85206193     0.09500
H1950       H  0.78844123  0.37698112  0.88918034     0.11600
H1951       H  0.78344774  0.34220074  0.97819037     0.08200
H1952       H  0.79894791  0.32372755  0.94091368     0.10900
C1953       C  0.71781262  0.65055418  0.52109812    -0.03700
C1954       C  0.72226565  0.66610028  0.52909903    -0.06300
C1955       C  0.71094321  0.67788154  0.53261457    -0.21400
C1956       C  0.69493247  0.67445530  0.52791305     0.24400
C1957       C  0.69042006  0.65871625  0.52198773    -0.18900
C1958       C  0.70174884  0.64692505  0.51855334    -0.08900
C1959       C  0.68351141  0.68769995  0.52857169    -0.19200
C1960       C  0.66895994  0.68694592  0.51360639    -0.24000
C1961       C  0.65812848  0.70062172  0.51143895     0.26400
C1962       C  0.64193571  0.69782670  0.50833055    -0.20700
C1963       C  0.63140905  0.71030947  0.50411783    -0.10400
C1964       C  0.63687329  0.72589808  0.50246664    -0.10900
C1965       C  0.65308092  0.72871699  0.50570510    -0.03800
C1966       C  0.66360004  0.71623885  0.51004024    -0.19000
H1967       H  0.73454020  0.66927694  0.53148637     0.10100
H1968       H  0.71476446  0.68983713  0.53773714     0.10200
H1969       H  0.67821823  0.65538028  0.51966495     0.09900
H1970       H  0.69792035  0.63503011  0.51275232     0.11000
H1971       H  0.68759236  0.69870758  0.54050116     0.11100
H1972       H  0.66467766  0.67598722  0.50192249     0.13000
H1973       H  0.63741847  0.68591733  0.50892353     0.09500
H1974       H  0.61900828  0.70771776  0.50146351     0.11600
H1975       H  0.65769565  0.74057049  0.50409271     0.08200
H1976       H  0.67601010  0.71889728  0.51100642     0.10900
C1977       C  0.77070395  0.45034433  0.47649563    -0.03700
C1978       C  0.78480330  0.45860518  0.48225018    -0.06300
C1979       C  0.78541918  0.47493333  0.47721576    -0.21400
C1980       C  0.77197578  0.48335345  0.46639645     0.24400
C1981       C  0.75813209  0.47492531  0.45835406    -0.18900
C1982       C  0.75748166  0.45863652  0.46369246    -0.08900
C1983       C  0.77270378  0.50086641  0.46485952    -0.19200
C1984       C  0.75996697  0.50999515  0.47045435    -0.24000
C1985       C  0.76001899  0.52751874  0.47289328     0.26400
C1986       C  0.74552934  0.53511206  0.47775375    -0.20700
C1987       C  0.74472500  0.55138444  0.48246819    -0.10400
C1988       C  0.75842926  0.56057701  0.48244483    -0.10900
C1989       C  0.77295714  0.55310282  0.47679335    -0.03800
C1990       C  0.77377717  0.53676060  0.47209385    -0.19000
H1991       H  0.79522210  0.45253097  0.49194634     0.10100
H1992       H  0.79629461  0.48107165  0.48308395     0.10200
H1993       H  0.74771630  0.48083265  0.44820230     0.09900
H1994       H  0.74654646  0.45254509  0.45822816     0.11000
H1995       H  0.78420070  0.50615980  0.46161621     0.11100
H1996       H  0.74872027  0.50432120  0.47524854     0.13000
H1997       H  0.73472281  0.52838133  0.47850234     0.09500
H1998       H  0.73333943  0.55672899  0.48677440     0.11600
H1999       H  0.78375285  0.55984676  0.47680871     0.08200
H2000       H  0.78523102  0.53155432  0.46862110     0.10900
C2001       C  0.85547492  0.69943783  0.29798479    -0.03700
C2002       C  0.85956975  0.69694055  0.33620597    -0.06300
C2003       C  0.85229245  0.68508169  0.35746601    -0.21400
C2004       C  0.84097885  0.67529772  0.34086074     0.24400
C2005       C  0.83637366  0.67822978  0.30310108    -0.18900
C2006       C  0.84356479  0.69018361  0.28190544    -0.08900
C2007       C  0.83391066  0.66252453  0.36415501    -0.19200
C2008       C  0.82753822  0.64942495  0.34925940    -0.24000
C2009       C  0.81871914  0.63793659  0.37279323     0.26400
C2010       C  0.80503026  0.63126581  0.35778316    -0.20700
C2011       C  0.79464973  0.62308473  0.38138461    -0.10400
C2012       C  0.79800040  0.62114976  0.42016437    -0.10900
C2013       C  0.81258795  0.62613335  0.43414568    -0.03800
C2014       C  0.82286629  0.63458239  0.41064776    -0.19000
H2015       H  0.86869529  0.70389570  0.34943134     0.10100
H2016       H  0.85583311  0.68325554  0.38669694     0.10200
H2017       H  0.82723633  0.67136130  0.28977599     0.09900
H2018       H  0.84017425  0.69181178  0.25251613     0.11000
H2019       H  0.83384672  0.66411241  0.39475231     0.11100
H2020       H  0.82743019  0.64777109  0.31872206     0.13000
H2021       H  0.80172323  0.63350528  0.32856191     0.09500
H2022       H  0.78343136  0.61935949  0.37004319     0.11600
H2023       H  0.81536192  0.62487889  0.46402145     0.08200
H2024       H  0.83363706  0.63915178  0.42261323     0.10900
C2025       C  0.79296557  0.64514063  0.55715114    -0.03700
C2026       C  0.79726355  0.64135670  0.59460558    -0.06300
C2027       C  0.80991729  0.64893834  0.61199704    -0.21400
C2028       C  0.81876906  0.66022278  0.59212022     0.24400
C2029       C  0.81409693  0.66446429  0.55511970    -0.18900
C2030       C  0.80129976  0.65701443  0.53787329    -0.08900
C2031       C  0.83242791  0.66763794  0.61138898    -0.19200
C2032       C  0.84481967  0.67385806  0.59268561    -0.24000
C2033       C  0.85748204  0.68275523  0.61220476     0.26400
C2034       C  0.86439440  0.69555195  0.59323611    -0.20700
C2035       C  0.87416800  0.70595916  0.61276860    -0.10400
C2036       C  0.87755258  0.70351016  0.65138314    -0.10900
C2037       C  0.87207507  0.68975596  0.66921022    -0.03800
C2038       C  0.86203707  0.67948425  0.64984977    -0.19000
H2039       H  0.79103904  0.63227619  0.61021932     0.10100
H2040       H  0.81307774  0.64565908  0.64073706     0.10200
H2041       H  0.82024724  0.67353417  0.53939201     0.09900
H2042       H  0.79829091  0.66014982  0.50895000     0.11000
H2043       H  0.83213946  0.66800437  0.64218927     0.11100
H2044       H  0.84512015  0.67357713  0.56189179     0.13000
H2045       H  0.86128228  0.69818365  0.56408376     0.09500
H2046       H  0.87817231  0.71653888  0.59846255     0.11600
H2047       H  0.87436197  0.68769285  0.69906833     0.08200
H2048       H  0.85736003  0.66938592  0.66489341     0.10900
C2049       C  0.63639864  0.72326917  0.98247011    -0.03700
C2050       C  0.63172760  0.70741475  0.98181153    -0.06300
C2051       C  0.64291438  0.69540235  0.97854895    -0.21400
C2052       C  0.65903328  0.69891359  0.97608752     0.24400
C2053       C  0.66360445  0.71484110  0.97527366    -0.18900
C2054       C  0.65245652  0.72680529  0.97862812    -0.08900
C2055       C  0.67061713  0.68570596  0.97429303    -0.19200
C2056       C  0.68606267  0.68740731  0.98216715    -0.24000
C2057       C  0.69795678  0.67450415  0.98188632     0.26400
C2058       C  0.71391054  0.67869494  0.98350536    -0.20700
C2059       C  0.72560687  0.66724045  0.98631225    -0.10400
C2060       C  0.72167694  0.65121009  0.98784574    -0.10900
C2061       C  0.70575110  0.64691556  0.98511700    -0.03800
C2062       C  0.69400936  0.65840688  0.98219196    -0.19000
H2063       H  0.61945971  0.70426392  0.98469707     0.10100
H2064       H  0.63897396  0.68329069  0.97878394     0.10200
H2065       H  0.67574277  0.71826618  0.97188881     0.09900
H2066       H  0.65648904  0.73888468  0.97872941     0.11000
H2067       H  0.66605663  0.67419917  0.96711529     0.11100
H2068       H  0.69046353  0.69889924  0.98995003     0.13000
H2069       H  0.71736031  0.69095685  0.98332436     0.09500
H2070       H  0.73772730  0.67099680  0.98843629     0.11600
H2071       H  0.70230723  0.63466543  0.98638177     0.08200
H2072       H  0.68191970  0.65456011  0.98154749     0.10900
C2073       C  0.75205881  0.59762904  0.88694133    -0.03700
C2074       C  0.76420281  0.59028737  0.86659972    -0.06300
C2075       C  0.76318973  0.58829969  0.82737880    -0.21400
C2076       C  0.75010271  0.59369571  0.80709517     0.24400
C2077       C  0.73770668  0.60075748  0.82737815    -0.18900
C2078       C  0.73869124  0.60268941  0.86695977    -0.08900
C2079       C  0.75017119  0.59161765  0.76503974    -0.19200
C2080       C  0.74135018  0.59995788  0.74039002    -0.24000
C2081       C  0.74308126  0.59873484  0.69825278     0.26400
C2082       C  0.73064865  0.60354664  0.67478409    -0.20700
C2083       C  0.73220955  0.60345439  0.63512521    -0.10400
C2084       C  0.74632790  0.59866645  0.61797866    -0.10900
C2085       C  0.75871770  0.59371597  0.64143885    -0.03800
C2086       C  0.75716334  0.59380911  0.68099463    -0.19000
H2087       H  0.77467339  0.58619121  0.88092512     0.10100
H2088       H  0.77287655  0.58275174  0.81268029     0.10200
H2089       H  0.72723152  0.60473357  0.81300005     0.09900
H2090       H  0.72910116  0.60831385  0.88181493     0.11000
H2091       H  0.75850788  0.58317705  0.75395501     0.11100
H2092       H  0.73273978  0.60820977  0.75106709     0.13000
H2093       H  0.71973677  0.60755667  0.68720145     0.09500
H2094       H  0.72247800  0.60749315  0.61793346     0.11600
H2095       H  0.76984147  0.59018744  0.62927480     0.08200
H2096       H  0.76727436  0.59055838  0.69776176     0.10900
C2097       C  0.73060058  0.61594460  0.38587701    -0.03700
C2098       C  0.72736255  0.63008419  0.36670406    -0.06300
C2099       C  0.72433026  0.63020385  0.32773526    -0.21400
C2100       C  0.72471491  0.61625196  0.30662540     0.24400
C2101       C  0.72711466  0.60193255  0.32613105    -0.18900
C2102       C  0.72998414  0.60180222  0.36543595    -0.08900
C2103       C  0.72344210  0.61755256  0.26440815    -0.19200
C2104       C  0.72840388  0.60650000  0.23978620    -0.24000
C2105       C  0.72998200  0.60936298  0.19808004     0.26400
C2106       C  0.73002361  0.59648855  0.17322579    -0.20700
C2107       C  0.73317073  0.59856242  0.13442516    -0.10400
C2108       C  0.73663920  0.61356153  0.11968049    -0.10900
C2109       C  0.73631640  0.62649498  0.14439570    -0.03800
C2110       C  0.73300591  0.62444803  0.18307103    -0.19000
H2111       H  0.72759884  0.64117628  0.38169113     0.10100
H2112       H  0.72234675  0.64138648  0.31372983     0.10200
H2113       H  0.72706060  0.59084404  0.31127145     0.09900
H2114       H  0.73238956  0.59072233  0.37949316     0.11000
H2115       H  0.71935056  0.62871217  0.25317522     0.11100
H2116       H  0.73219647  0.59513447  0.25027852     0.13000
H2117       H  0.72791633  0.58472896  0.18401945     0.09500
H2118       H  0.73346082  0.58833092  0.11623986     0.11600
H2119       H  0.73902685  0.63819369  0.13402054     0.08200
H2120       H  0.73358161  0.63463401  0.20129035     0.10900
C2121       C  0.76091754  0.56072591  0.02259956    -0.03700
C2122       C  0.74638472  0.55303880  0.02660891    -0.06300
C2123       C  0.74560200  0.53675692  0.03132401    -0.21400
C2124       C  0.75928052  0.52760560  0.03171743     0.24400
C2125       C  0.77392643  0.53529768  0.02888371    -0.18900
C2126       C  0.77471688  0.55171409  0.02445850    -0.08900
C2127       C  0.75744687  0.51018284  0.03467184    -0.19200
C2128       C  0.76840975  0.49964618  0.02400669    -0.24000
C2129       C  0.76551686  0.48231444  0.02278950     0.26400
C2130       C  0.77840920  0.47204049  0.02247144    -0.20700
C2131       C  0.77624664  0.45578954  0.01848976    -0.10400
C2132       C  0.76110671  0.44943226  0.01416657    -0.10900
C2133       C  0.74818485  0.45966080  0.01503986    -0.03800
C2134       C  0.75033199  0.47587771  0.01923086    -0.19000
H2135       H  0.73551312  0.55960493  0.02557060     0.10100
H2136       H  0.73417051  0.53123533  0.03373332     0.10200
H2137       H  0.78478443  0.52876397  0.03004709     0.09900
H2138       H  0.78608983  0.55729888  0.02155988     0.11000
H2139       H  0.74612001  0.50593869  0.04443905     0.11100
H2140       H  0.77986910  0.50373975  0.01479866     0.13000
H2141       H  0.79023758  0.47663338  0.02479766     0.09500
H2142       H  0.78647012  0.44825923  0.01766331     0.11600
H2143       H  0.73637125  0.45516482  0.01158622     0.08200
H2144       H  0.74006080  0.48329157  0.01811766     0.10900
C2145       C  0.79483178  0.64628423  0.94028563    -0.03700
C2146       C  0.80542211  0.63963225  0.91428814    -0.06300
C2147       C  0.81526031  0.64916101  0.89228772    -0.21400
C2148       C  0.81460943  0.66558231  0.89513519     0.24400
C2149       C  0.80388705  0.67232649  0.92081988    -0.18900
C2150       C  0.79414280  0.66274412  0.94329871    -0.08900
C2151       C  0.82589076  0.67508502  0.87227810    -0.19200
C2152       C  0.82353631  0.69016595  0.86201370    -0.24000
C2153       C  0.83499407  0.69907319  0.83828911     0.26400
C2154       C  0.82953907  0.71069353  0.81318738    -0.20700
C2155       C  0.84002291  0.71898378  0.78983995    -0.10400
C2156       C  0.85622967  0.71607386  0.79185006    -0.10900
C2157       C  0.86173962  0.70476950  0.81776382    -0.03800
C2158       C  0.85124613  0.69631327  0.84064079    -0.19000
H2159       H  0.80636911  0.62699867  0.91149830     0.10100
H2160       H  0.82347959  0.64365105  0.87298486     0.10200
H2161       H  0.80329932  0.68492815  0.92444471     0.09900
H2162       H  0.78615410  0.66820337  0.96321800     0.11000
H2163       H  0.83626334  0.66907137  0.86183038     0.11100
H2164       H  0.81252149  0.69586148  0.86902044     0.13000
H2165       H  0.81709840  0.71315091  0.81113131     0.09500
H2166       H  0.83546097  0.72771433  0.77031745     0.11600
H2167       H  0.87417163  0.70229356  0.81997493     0.08200
H2168       H  0.85590880  0.68776018  0.86043719     0.10900
C2169       C  0.80518387  0.62069621  0.08091220    -0.03700
C2170       C  0.80346075  0.62753787  0.11694704    -0.06300
C2171       C  0.81658783  0.63286630  0.13695208    -0.21400
C2172       C  0.83167363  0.63173634  0.12111733     0.24400
C2173       C  0.83353545  0.62377827  0.08644396    -0.18900
C2174       C  0.82040357  0.61826442  0.06660956    -0.08900
C2175       C  0.84486400  0.64004571  0.14015129    -0.19200
C2176       C  0.85682360  0.64671905  0.12071605    -0.24000
C2177       C  0.86726946  0.65877842  0.13782057     0.26400
C2178       C  0.87206105  0.67154599  0.11522543    -0.20700
C2179       C  0.87911939  0.68468756  0.13171705    -0.10400
C2180       C  0.88185332  0.68514113  0.17103035    -0.10900
C2181       C  0.87865434  0.67167449  0.19297722    -0.03800
C2182       C  0.87132049  0.65861114  0.17656120    -0.19000
H2183       H  0.79190094  0.62948581  0.12885017     0.10100
H2184       H  0.81484038  0.63876437  0.16384679     0.10200
H2185       H  0.84504781  0.62224332  0.07400552     0.09900
H2186       H  0.82212104  0.61299090  0.03896644     0.11000
H2187       H  0.84339808  0.64279964  0.17004975     0.11100
H2188       H  0.85739408  0.64532362  0.09010080     0.13000
H2189       H  0.86924375  0.67188344  0.08523050     0.09500
H2190       H  0.88145051  0.69492584  0.11417934     0.11600
H2191       H  0.88053229  0.67176074  0.22340556     0.08200
H2192       H  0.86818482  0.64873376  0.19451560     0.10900
C2193       C  0.19903733  0.64795423  0.55103606    -0.03700
C2194       C  0.19656097  0.64433001  0.58955920    -0.06300
C2195       C  0.18405528  0.65099731  0.60942442    -0.21400
C2196       C  0.17359535  0.66122987  0.59114294     0.24400
C2197       C  0.17644899  0.66540006  0.55297658    -0.18900
C2198       C  0.18907526  0.65882947  0.53315860    -0.08900
C2199       C  0.16027321  0.66771705  0.61336079    -0.19200
C2200       C  0.14695824  0.67325165  0.59767794    -0.24000
C2201       C  0.13487488  0.68154477  0.62039268     0.26400
C2202       C  0.12725168  0.69449486  0.60409686    -0.20700
C2203       C  0.11820911  0.70448838  0.62658434    -0.10400
C2204       C  0.11635304  0.70148934  0.66561387    -0.10900
C2205       C  0.12250199  0.68756436  0.68102205    -0.03800
C2206       C  0.13176600  0.67767406  0.65860671    -0.19000
H2207       H  0.20401172  0.63593158  0.60405246     0.10100
H2208       H  0.18228068  0.64779367  0.63893752     0.10200
H2209       H  0.16899703  0.67369229  0.53825770     0.09900
H2210       H  0.19060706  0.66171784  0.50338769     0.11000
H2211       H  0.16167243  0.66811493  0.64399405     0.11100
H2212       H  0.14547489  0.67306348  0.56708237     0.13000
H2213       H  0.12929840  0.69758959  0.57461312     0.09500
H2214       H  0.11364484  0.71520093  0.61409847     0.11600
H2215       H  0.12138298  0.68507563  0.71111432     0.08200
H2216       H  0.13706269  0.66744403  0.67165428     0.10900
C2217       C  0.11499016  0.69548197  0.32375569    -0.03700
C2218       C  0.11516072  0.68011610  0.30917443    -0.06300
C2219       C  0.12193275  0.66777102  0.32998699    -0.21400
C2220       C  0.12859978  0.67054797  0.36594639     0.24400
C2221       C  0.12730522  0.68564240  0.38160171    -0.18900
C2222       C  0.12072978  0.69799264  0.36066316    -0.08900
C2223       C  0.13783819  0.65843486  0.38700640    -0.19200
C2224       C  0.14609706  0.64704212  0.36945579    -0.24000
C2225       C  0.15850050  0.63762072  0.38881573     0.26400
C2226       C  0.17162381  0.63296377  0.36751877    -0.20700
C2227       C  0.18463250  0.62616632  0.38525327    -0.10400
C2228       C  0.18466867  0.62348138  0.42463653    -0.10900
C2229       C  0.17104715  0.62693774  0.44560446    -0.03800
C2230       C  0.15809090  0.63402795  0.42791227    -0.19000
H2231       H  0.11084289  0.67779362  0.28082965     0.10100
H2232       H  0.12225861  0.65618838  0.31745230     0.10200
H2233       H  0.13216477  0.68810236  0.40936919     0.09900
H2234       H  0.12072030  0.70967032  0.37280112     0.11000
H2235       H  0.13963931  0.66033844  0.41716162     0.11100
H2236       H  0.14544878  0.64610341  0.33876577     0.13000
H2237       H  0.17221457  0.63545563  0.33734703     0.09500
H2238       H  0.19499086  0.62370598  0.36842747     0.11600
H2239       H  0.17082086  0.62517454  0.47609408     0.08200
H2240       H  0.14800259  0.63708801  0.44504499     0.10900
C2241       C  0.34801808  0.73484235  0.50975012    -0.03700
C2242       C  0.33233676  0.73973709  0.50570393    -0.06300
C2243       C  0.32030109  0.72880768  0.49985714    -0.21400
C2244       C  0.32351027  0.71264841  0.49811509     0.24400
C2245       C  0.33927735  0.70773620  0.50111435    -0.18900
C2246       C  0.35136435  0.71871713  0.50695484    -0.08900
C2247       C  0.31005133  0.70153423  0.49276055    -0.19200
C2248       C  0.31065648  0.68596508  0.50028706    -0.24000
C2249       C  0.29712713  0.67490152  0.49568676     0.26400
C2250       C  0.30028280  0.65875342  0.49290901    -0.20700
C2251       C  0.28810027  0.64781443  0.48916983    -0.10400
C2252       C  0.27234363  0.65269368  0.48849446    -0.10900
C2253       C  0.26910205  0.66884209  0.49174970    -0.03800
C2254       C  0.28133127  0.67982998  0.49533780    -0.19000
H2255       H  0.32928395  0.75206228  0.50754119     0.10100
H2256       H  0.30835432  0.73300993  0.49729265     0.10200
H2257       H  0.34243572  0.69548850  0.49874193     0.09900
H2258       H  0.36331391  0.71455834  0.50965517     0.11000
H2259       H  0.29911808  0.70658986  0.48287320     0.11100
H2260       H  0.32157475  0.68085914  0.51004766     0.13000
H2261       H  0.31227624  0.65456335  0.49336997     0.09500
H2262       H  0.29106363  0.63548519  0.48673932     0.11600
H2263       H  0.25710336  0.67300507  0.49141675     0.08200
H2264       H  0.27828507  0.69208467  0.49847333     0.10900
C2265       C  0.21012027  0.64785117  0.04962564    -0.03700
C2266       C  0.21327111  0.66393080  0.04389361    -0.06300
C2267       C  0.20534682  0.67530758  0.06505638    -0.21400
C2268       C  0.19388170  0.67080706  0.09152187     0.24400
C2269       C  0.19104152  0.65473287  0.09803735    -0.18900
C2270       C  0.19916492  0.64335605  0.07743474    -0.08900
C2271       C  0.18473865  0.68293742  0.11175411    -0.19200
C2272       C  0.16917545  0.68131896  0.11651823    -0.24000
C2273       C  0.15922137  0.69257922  0.13748302     0.26400
C2274       C  0.14318771  0.69308838  0.12889751    -0.20700
C2275       C  0.13294481  0.70203405  0.15079670    -0.10400
C2276       C  0.13848213  0.71050806  0.18225616    -0.10900
C2277       C  0.15464871  0.71045355  0.19017272    -0.03800
C2278       C  0.16496423  0.70158573  0.16789772    -0.19000
H2279       H  0.22176548  0.66771014  0.02281790     0.10100
H2280       H  0.20778777  0.68763727  0.05987980     0.10200
H2281       H  0.18247933  0.65097635  0.11896573     0.09900
H2282       H  0.19654772  0.63105807  0.08250849     0.11000
H2283       H  0.19067167  0.69359184  0.12079078     0.11100
H2284       H  0.16330801  0.67129935  0.10367807     0.13000
H2285       H  0.13849940  0.68622997  0.10564572     0.09500
H2286       H  0.12057216  0.70185060  0.14379909     0.11600
H2287       H  0.15925152  0.71687302  0.21421739     0.08200
H2288       H  0.17724153  0.70121833  0.17565368     0.10900
C2289       C  0.19572574  0.62525344  0.91095388    -0.03700
C2290       C  0.19877190  0.63101929  0.87418538    -0.06300
C2291       C  0.18792307  0.64066348  0.85577036    -0.21400
C2292       C  0.17382315  0.64481644  0.87389181     0.24400
C2293       C  0.17001737  0.63761893  0.90871023    -0.18900
C2294       C  0.18090552  0.62793613  0.92721512    -0.08900
C2295       C  0.16340773  0.65730087  0.85844340    -0.19200
C2296       C  0.16903148  0.66970637  0.83852557    -0.24000
C2297       C  0.15928113  0.68308896  0.82498521     0.26400
C2298       C  0.16484204  0.69234332  0.79464784    -0.20700
C2299       C  0.15589969  0.70480828  0.78034634    -0.10400
C2300       C  0.14126331  0.70842942  0.79646672    -0.10900
C2301       C  0.13604182  0.69963804  0.82801227    -0.03800
C2302       C  0.14492783  0.68711590  0.84212442    -0.19000
H2303       H  0.21002197  0.62896109  0.86070857     0.10100
H2304       H  0.19090723  0.64535988  0.82807174     0.10200
H2305       H  0.15907901  0.64038960  0.92289331     0.09900
H2306       H  0.17824744  0.62370370  0.95556552     0.11000
H2307       H  0.15105953  0.65671232  0.86586568     0.11100
H2308       H  0.18145565  0.67022655  0.83173917     0.13000
H2309       H  0.17597959  0.68966123  0.78130421     0.09500
H2310       H  0.16025154  0.71131859  0.75599747     0.11600
H2311       H  0.12483288  0.70213252  0.84119869     0.08200
H2312       H  0.14049027  0.68069930  0.86646101     0.10900
C2313       C  0.28034939  0.64269220  0.00968755    -0.03700
C2314       C  0.29613033  0.63901165  0.00265189    -0.06300
C2315       C  0.30802564  0.64967778  0.01216529    -0.21400
C2316       C  0.30444845  0.66418006  0.02917449     0.24400
C2317       C  0.28863456  0.66746248  0.03780900    -0.18900
C2318       C  0.27678285  0.65686018  0.02810689    -0.08900
C2319       C  0.31736363  0.67588773  0.03436227    -0.19200
C2320       C  0.31564010  0.69002764  0.05115730    -0.24000
C2321       C  0.32782212  0.70258358  0.04985618     0.26400
C2322       C  0.32296990  0.71832972  0.05155812    -0.20700
C2323       C  0.33378994  0.73058748  0.04716876    -0.10400
C2324       C  0.34977900  0.72736482  0.04138609    -0.10900
C2325       C  0.35477029  0.71161121  0.04162513    -0.03800
C2326       C  0.34392738  0.69934127  0.04587260    -0.19000
H2327       H  0.29924073  0.62816957  0.98853189     0.10100
H2328       H  0.32005999  0.64676591  0.00518004     0.10200
H2329       H  0.28508845  0.67836049  0.05076879     0.09900
H2330       H  0.26471774  0.65996324  0.03425622     0.11000
H2331       H  0.32853948  0.67306124  0.02125315     0.11100
H2332       H  0.30450709  0.69325197  0.06371937     0.13000
H2333       H  0.31065605  0.72116838  0.05493613     0.09500
H2334       H  0.32955120  0.74257819  0.04721151     0.11600
H2335       H  0.36703303  0.70872828  0.03757709     0.08200
H2336       H  0.34821228  0.68738580  0.04575663     0.10900
C2337       C  0.25812474  0.61164124  0.86529517    -0.03700
C2338       C  0.25407636  0.62496431  0.84361346    -0.06300
C2339       C  0.25352860  0.62431424  0.80413863    -0.21400
C2340       C  0.25730170  0.61045837  0.78493238     0.24400
C2341       C  0.26217773  0.59726710  0.80616923    -0.18900
C2342       C  0.26246876  0.59782670  0.84614855    -0.08900
C2343       C  0.25417573  0.60993046  0.74345371    -0.19200
C2344       C  0.26174143  0.60072516  0.71842582    -0.24000
C2345       C  0.25732906  0.60083953  0.67753349     0.26400
C2346       C  0.26894561  0.60036078  0.64920131    -0.20700
C2347       C  0.26481550  0.60124946  0.61064021    -0.10400
C2348       C  0.24895783  0.60215385  0.59981960    -0.10900
C2349       C  0.23735911  0.60211742  0.62824982    -0.03800
C2350       C  0.24148654  0.60154852  0.66659166    -0.19000
H2351       H  0.25056465  0.63580954  0.85717413     0.10100
H2352       H  0.24968129  0.63460893  0.78853028     0.10200
H2353       H  0.26493971  0.58632264  0.79212333     0.09900
H2354       H  0.26556491  0.58736034  0.86202120     0.11000
H2355       H  0.24535741  0.61802361  0.73272834     0.11100
H2356       H  0.27166455  0.59368176  0.72754916     0.13000
H2357       H  0.28122169  0.59971626  0.65695307     0.09500
H2358       H  0.27399393  0.60120355  0.58931663     0.11600
H2359       H  0.22504542  0.60285633  0.62087378     0.08200
H2360       H  0.23224117  0.60160409  0.68774539     0.10900
C2361       C  0.24894721  0.61379082  0.36260595    -0.03700
C2362       C  0.24349462  0.62530012  0.33713168    -0.06300
C2363       C  0.24349808  0.62258421  0.29809829    -0.21400
C2364       C  0.24914677  0.60841156  0.28328170     0.24400
C2365       C  0.25512983  0.59701385  0.30846310    -0.18900
C2366       C  0.25496039  0.59966722  0.34784002    -0.08900
C2367       C  0.24725982  0.60564537  0.24189332    -0.19200
C2368       C  0.25616419  0.59588893  0.22095578    -0.24000
C2369       C  0.25346348  0.59430259  0.17943291     0.26400
C2370       C  0.26622646  0.59391431  0.15419144    -0.20700
C2371       C  0.26372185  0.59411638  0.11480631    -0.10400
C2372       C  0.24838012  0.59432043  0.10005813    -0.10900
C2373       C  0.23564970  0.59377184  0.12549744    -0.03800
C2374       C  0.23815594  0.59381400  0.16467952    -0.19000
H2375       H  0.23868767  0.63626640  0.34739312     0.10100
H2376       H  0.23876820  0.63152720  0.27936725     0.10200
H2377       H  0.25930993  0.58583450  0.29801034     0.09900
H2378       H  0.25913373  0.59051627  0.36673639     0.11000
H2379       H  0.23837426  0.61261097  0.22748456     0.11100
H2380       H  0.26615754  0.58997301  0.23363235     0.13000
H2381       H  0.27812808  0.59414616  0.16494461     0.09500
H2382       H  0.27377083  0.59447186  0.09594397     0.11600
H2383       H  0.22368329  0.59388129  0.11516794     0.08200
H2384       H  0.22808649  0.59371030  0.18349363     0.10900
C2385       C  0.13556758  0.30801387  0.30500452    -0.03700
C2386       C  0.13224888  0.30978019  0.34386365    -0.06300
C2387       C  0.13883041  0.32214556  0.36441112    -0.21400
C2388       C  0.14863749  0.33316818  0.34647347     0.24400
C2389       C  0.15252621  0.33102396  0.30794615    -0.18900
C2390       C  0.14605307  0.31854376  0.28744029    -0.08900
C2391       C  0.15502622  0.34634209  0.36929211    -0.19200
C2392       C  0.15970684  0.36017394  0.35426436    -0.24000
C2393       C  0.16815929  0.37208888  0.37710857     0.26400
C2394       C  0.18077295  0.38013900  0.36034285    -0.20700
C2395       C  0.19119167  0.38870665  0.38281358    -0.10400
C2396       C  0.18892877  0.38966215  0.42227798    -0.10900
C2397       C  0.17522956  0.38326321  0.43831263    -0.03800
C2398       C  0.16493520  0.37444301  0.41590033    -0.19000
H2399       H  0.12418153  0.30185996  0.35815467     0.10100
H2400       H  0.13588281  0.32337149  0.39419520     0.10200
H2401       H  0.16052779  0.33892917  0.29350037     0.09900
H2402       H  0.14873373  0.31753993  0.25746367     0.11000
H2403       H  0.15610418  0.34440034  0.39967622     0.11100
H2404       H  0.15881806  0.36218835  0.32389935     0.13000
H2405       H  0.18334989  0.37868212  0.33042724     0.09500
H2406       H  0.20171520  0.39350688  0.36984520     0.11600
H2407       H  0.17330023  0.38372189  0.46870352     0.08200
H2408       H  0.15496143  0.36878892  0.42933933     0.10900
C2409       C  0.19867995  0.36216962  0.55188123    -0.03700
C2410       C  0.19651997  0.34677551  0.53865741    -0.06300
C2411       C  0.18477208  0.33715167  0.55418442    -0.21400
C2412       C  0.17472491  0.34273605  0.58283779     0.24400
C2413       C  0.17723821  0.35797674  0.59699576    -0.18900
C2414       C  0.18908633  0.36754465  0.58171957    -0.08900
C2415       C  0.16202764  0.33214333  0.59721174    -0.19200
C2416       C  0.14931150  0.33686711  0.61717356    -0.24000
C2417       C  0.13724923  0.32556862  0.63147960     0.26400
C2418       C  0.13372295  0.31163699  0.61190057    -0.20700
C2419       C  0.12417303  0.30015157  0.62856846    -0.10400
C2420       C  0.11786365  0.30232898  0.66511353    -0.10900
C2421       C  0.12003839  0.31691489  0.68297763    -0.03800
C2422       C  0.12960601  0.32846833  0.66617053    -0.19000
H2423       H  0.20369174  0.34227093  0.51573921     0.10100
H2424       H  0.18327279  0.32539734  0.54305121     0.10200
H2425       H  0.17014684  0.36262590  0.61979967     0.09900
H2426       H  0.19041107  0.37936254  0.59257437     0.11000
H2427       H  0.16325588  0.31975736  0.59062164     0.11100
H2428       H  0.14797043  0.34910127  0.62493252     0.13000
H2429       H  0.13877166  0.30931518  0.58426245     0.09500
H2430       H  0.12257776  0.28910284  0.61387400     0.11600
H2431       H  0.11543382  0.31891035  0.71124526     0.08200
H2432       H  0.13187041  0.33924947  0.68147878     0.10900
C2433       C  0.22994088  0.56249742  0.47546373    -0.03700
C2434       C  0.24388787  0.55434404  0.46769029    -0.06300
C2435       C  0.24406079  0.53798257  0.46592808    -0.21400
C2436       C  0.23034125  0.52916420  0.47200513     0.24400
C2437       C  0.21619009  0.53729048  0.47892670    -0.18900
C2438       C  0.21601146  0.55381725  0.48052099    -0.08900
C2439       C  0.23185510  0.51165872  0.47172735    -0.19200
C2440       C  0.22030847  0.50124891  0.47956175    -0.24000
C2441       C  0.22303877  0.48390213  0.48145809     0.26400
C2442       C  0.21030776  0.47359296  0.47656231    -0.20700
C2443       C  0.21232035  0.45728868  0.47976647    -0.10400
C2444       C  0.22712866  0.45088935  0.48824182    -0.10900
C2445       C  0.23988672  0.46118362  0.49297487    -0.03800
C2446       C  0.23787356  0.47746050  0.48986670    -0.19000
H2447       H  0.25483963  0.56061497  0.46353334     0.10100
H2448       H  0.25512951  0.53216674  0.46045447     0.10200
H2449       H  0.20528933  0.53106651  0.48361077     0.09900
H2450       H  0.20508601  0.55976425  0.48673461     0.11000
H2451       H  0.24340674  0.50713900  0.46489131     0.11100
H2452       H  0.20845322  0.50534328  0.48452685     0.13000
H2453       H  0.19873448  0.47817721  0.47039926     0.09500
H2454       H  0.20221661  0.44970460  0.47608422     0.11600
H2455       H  0.25141038  0.45668352  0.49995989     0.08200
H2456       H  0.24791750  0.48490065  0.49528016     0.10900
C2457       C  0.20482269  0.35717080  0.93783111    -0.03700
C2458       C  0.20774110  0.34118320  0.94508384    -0.06300
C2459       C  0.20054753  0.32959244  0.92306943    -0.21400
C2460       C  0.19005797  0.33380732  0.89416598     0.24400
C2461       C  0.18744711  0.34981253  0.88635651    -0.18900
C2462       C  0.19481111  0.36137939  0.90791882    -0.08900
C2463       C  0.18173672  0.32139697  0.87282585    -0.19200
C2464       C  0.16675372  0.32328081  0.86199406    -0.24000
C2465       C  0.15760883  0.31115701  0.84180322     0.26400
C2466       C  0.14130203  0.31102021  0.84662264    -0.20700
C2467       C  0.13202006  0.30047854  0.82650832    -0.10400
C2468       C  0.13882723  0.29004492  0.80043702    -0.10900
C2469       C  0.15519538  0.29006690  0.79565487    -0.03800
C2470       C  0.16455817  0.30049230  0.81640248    -0.19000
H2471       H  0.21557378  0.33765990  0.96776323     0.10100
H2472       H  0.20282748  0.31732630  0.92927996     0.10200
H2473       H  0.17973072  0.35340862  0.86353556     0.09900
H2474       H  0.19242361  0.37362014  0.90167783     0.11000
H2475       H  0.18758738  0.31021713  0.86850381     0.11100
H2476       H  0.16055285  0.33389491  0.87018519     0.13000
H2477       H  0.13570006  0.31921015  0.86581438     0.09500
H2478       H  0.11941612  0.30088784  0.83046941     0.11600
H2479       H  0.16070224  0.28222198  0.77551020     0.08200
H2480       H  0.17710192  0.30057487  0.81151307     0.10900
C2481       C  0.11121452  0.32302313  0.18384088    -0.03700
C2482       C  0.11479531  0.33548927  0.20845627    -0.06300
C2483       C  0.12353495  0.34842313  0.19554738    -0.21400
C2484       C  0.12859319  0.34936388  0.15760362     0.24400
C2485       C  0.12381046  0.33751815  0.13222547    -0.18900
C2486       C  0.11528292  0.32446896  0.14528409    -0.08900
C2487       C  0.14065217  0.36137135  0.14693983    -0.19200
C2488       C  0.14356181  0.36587254  0.11082942    -0.24000
C2489       C  0.15773000  0.37495366  0.09859682     0.26400
C2490       C  0.15775987  0.38190566  0.06236419    -0.20700
C2491       C  0.17162076  0.38790672  0.04654793    -0.10400
C2492       C  0.18590575  0.38688312  0.06636547    -0.10900
C2493       C  0.18572633  0.38087022  0.10363700    -0.03800
C2494       C  0.17179237  0.37500328  0.11966170    -0.19000
H2495       H  0.11212757  0.33458599  0.23849234     0.10100
H2496       H  0.12711255  0.35728397  0.21578258     0.10200
H2497       H  0.12767892  0.33757607  0.10294939     0.09900
H2498       H  0.11286732  0.31495924  0.12577814     0.11000
H2499       H  0.14778025  0.36612215  0.16969356     0.11100
H2500       H  0.13553260  0.36222352  0.08863568     0.13000
H2501       H  0.14715880  0.38200742  0.04542267     0.09500
H2502       H  0.17131291  0.39237286  0.01770327     0.11600
H2503       H  0.19652733  0.37987256  0.11962600     0.08200
H2504       H  0.17239538  0.36955979  0.14742757     0.10900
C2505       C  0.24587627  0.41025662  0.88281326    -0.03700
C2506       C  0.23712774  0.42205350  0.86463482    -0.06300
C2507       C  0.23863786  0.42470881  0.82570429    -0.21400
C2508       C  0.24875895  0.41552269  0.80356095     0.24400
C2509       C  0.25821528  0.40421906  0.82204592    -0.18900
C2510       C  0.25682099  0.40168430  0.86143752    -0.08900
C2511       C  0.24809096  0.41772896  0.76145982    -0.19200
C2512       C  0.25464834  0.40809592  0.73560677    -0.24000
C2513       C  0.25139807  0.40944513  0.69407566     0.26400
C2514       C  0.26249507  0.40382538  0.66797195    -0.20700
C2515       C  0.25936690  0.40401810  0.62891256    -0.10400
C2516       C  0.24493389  0.40963341  0.61503564    -0.10900
C2517       C  0.23380652  0.41523738  0.64115993    -0.03800
C2518       C  0.23698200  0.41515158  0.68017328     0.00200
H2519       H  0.22877219  0.42903854  0.88045928     0.10100
H2520       H  0.23134445  0.43362060  0.81258592     0.10200
H2521       H  0.26643281  0.39707930  0.80639659     0.09900
H2522       H  0.26377675  0.39258190  0.87483362     0.11000
H2523       H  0.24098493  0.42743519  0.75121313     0.11100
H2524       H  0.26236814  0.39870464  0.74466336     0.13000
H2525       H  0.27359153  0.39917442  0.67786553     0.09500
H2526       H  0.26815252  0.39946278  0.60963248     0.11600
H2527       H  0.22250712  0.41945885  0.63151993     0.08200
H2528       H  0.22787594  0.41905824  0.69936587     0.10900
C2529       C  0.25725706  0.39657755  0.11689691    -0.03700
C2530       C  0.25842157  0.41145929  0.13387475    -0.06300
C2531       C  0.26257320  0.41280391  0.17233388    -0.21400
C2532       C  0.26588393  0.39925638  0.19402967     0.24400
C2533       C  0.26565950  0.38456211  0.17615629    -0.18900
C2534       C  0.26121684  0.38320418  0.13824179    -0.08900
C2535       C  0.26866653  0.39948684  0.23567347    -0.19200
C2536       C  0.26245378  0.41020267  0.25939706    -0.24000
C2537       C  0.26125743  0.40734715  0.30107236     0.26400
C2538       C  0.26039388  0.42008942  0.32622919    -0.20700
C2539       C  0.25761997  0.41757815  0.36510036    -0.10400
C2540       C  0.25535832  0.40226268  0.37936401    -0.10900
C2541       C  0.25642001  0.38954497  0.35420610    -0.03800
C2542       C  0.25930786  0.39203245  0.31563554    -0.19000
H2543       H  0.25553233  0.42195897  0.11786277     0.10100
H2544       H  0.26299686  0.42435721  0.18499017     0.10200
H2545       H  0.26826769  0.37395694  0.19207739     0.09900
H2546       H  0.26064152  0.37161004  0.12572320     0.11000
H2547       H  0.27442393  0.38924696  0.24774077     0.11100
H2548       H  0.25692960  0.42070469  0.24810372     0.13000
H2549       H  0.26160994  0.43200819  0.31567180     0.09500
H2550       H  0.25672864  0.42763446  0.38372712     0.11600
H2551       H  0.25461144  0.37761209  0.36414951     0.08200
H2552       H  0.25926351  0.38192324  0.29710590     0.10900
C2553       C  0.22987295  0.44721663  0.00454442    -0.03700
C2554       C  0.24334555  0.45576362  0.01453882    -0.06300
C2555       C  0.24340385  0.47216679  0.01324657    -0.21400
C2556       C  0.23011669  0.48055803  0.00127347     0.24400
C2557       C  0.21642686  0.47206783  0.99200616    -0.18900
C2558       C  0.21630179  0.45553487  0.99384514    -0.08900
C2559       C  0.23135846  0.49805944  0.99936451    -0.19200
C2560       C  0.22210422  0.50764488  0.97845470    -0.24000
C2561       C  0.22499406  0.52497856  0.97551419     0.26400
C2562       C  0.21246650  0.53527459  0.96797643    -0.20700
C2563       C  0.21486609  0.55163649  0.96674368    -0.10400
C2564       C  0.22992937  0.55802810  0.97237631    -0.10900
C2565       C  0.24254397  0.54764099  0.97805403    -0.03800
C2566       C  0.24014082  0.53139498  0.97949587    -0.19000
H2567       H  0.25398639  0.44973462  0.02289863     0.10100
H2568       H  0.25407920  0.47833756  0.02081845     0.10200
H2569       H  0.20584051  0.47808544  0.98340001     0.09900
H2570       H  0.20577038  0.44925090  0.98571315     0.11000
H2571       H  0.24095189  0.50322744  0.01527028     0.11100
H2572       H  0.21217044  0.50282304  0.96316612     0.13000
H2573       H  0.20071944  0.53067412  0.96409319     0.09500
H2574       H  0.20488968  0.55928007  0.96223190     0.11600
H2575       H  0.25433271  0.55207500  0.98227758     0.08200
H2576       H  0.25025944  0.52392735  0.98359933     0.10900
C2577       C  0.70910784  0.14428362  0.31933730    -0.03700
C2578       C  0.69846138  0.13847471  0.34651448    -0.06300
C2579       C  0.68833294  0.14863790  0.36546990    -0.21400
C2580       C  0.68887288  0.16483802  0.35836491     0.24400
C2581       C  0.69976153  0.17078038  0.33187498    -0.18900
C2582       C  0.70973813  0.16055412  0.31232208    -0.08900
C2583       C  0.67720634  0.17501942  0.37719110    -0.19200
C2584       C  0.68024781  0.18986292  0.38779353    -0.24000
C2585       C  0.66825119  0.19944195  0.40734322     0.26400
C2586       C  0.67269120  0.20926867  0.43732673    -0.20700
C2587       C  0.66136888  0.21779823  0.45727662    -0.10400
C2588       C  0.64545396  0.21689291  0.44695890    -0.10900
C2589       C  0.64112176  0.20747018  0.41602259    -0.03800
C2590       C  0.65239866  0.19877874  0.39649916    -0.19000
H2591       H  0.69762622  0.12599320  0.35237944     0.10100
H2592       H  0.67996603  0.14382099  0.38561571     0.10200
H2593       H  0.70019719  0.18321741  0.32531368     0.09900
H2594       H  0.71778947  0.16534149  0.29141223     0.11000
H2595       H  0.66593779  0.16978626  0.38444841     0.11100
H2596       H  0.69199292  0.19467134  0.38444467     0.13000
H2597       H  0.68486871  0.21001249  0.44594102     0.09500
H2598       H  0.66505887  0.22502843  0.48089664     0.11600
H2599       H  0.62896755  0.20657690  0.40731933     0.08200
H2600       H  0.64872189  0.19155811  0.37285766     0.10900
C2601       C  0.62018126  0.20441214  0.58111164    -0.03700
C2602       C  0.62332508  0.18966287  0.56502779    -0.06300
C2603       C  0.63272706  0.17876563  0.58438244    -0.21400
C2604       C  0.63918362  0.18245356  0.61997187     0.24400
C2605       C  0.63468243  0.19656147  0.63757000    -0.18900
C2606       C  0.62535667  0.20742839  0.61826328    -0.08900
C2607       C  0.65104149  0.17172284  0.63710105    -0.19200
C2608       C  0.66216371  0.17670949  0.66156361    -0.24000
C2609       C  0.67456314  0.16642843  0.67775277     0.26400
C2610       C  0.68114922  0.17042481  0.71294286    -0.20700
C2611       C  0.69271893  0.16100880  0.72949630    -0.10400
C2612       C  0.69808748  0.14744086  0.71097256    -0.10900
C2613       C  0.69191410  0.14375507  0.67505092    -0.03800
C2614       C  0.68029327  0.15315404  0.65855699    -0.19000
H2615       H  0.61959988  0.18703945  0.53634167     0.10100
H2616       H  0.63575331  0.16784386  0.57049499     0.10200
H2617       H  0.63869970  0.19952297  0.66576742     0.09900
H2618       H  0.62299318  0.21863759  0.63157118     0.11000
H2619       H  0.65101838  0.15957333  0.62783597     0.11100
H2620       H  0.66227081  0.18887118  0.67065662     0.13000
H2621       H  0.67705922  0.18068816  0.72811646     0.09500
H2622       H  0.69711655  0.16411437  0.75732318     0.11600
H2623       H  0.69583131  0.13340309  0.65998555     0.08200
H2624       H  0.67590880  0.15001934  0.63078055     0.10900
C2625       C  0.64383162  0.28824914  0.49252548    -0.03700
C2626       C  0.63949093  0.30414684  0.49403600    -0.06300
C2627       C  0.65094733  0.31597548  0.49304831    -0.21400
C2628       C  0.66697500  0.31219206  0.49085821     0.24400
C2629       C  0.67125984  0.29628053  0.48782167    -0.18900
C2630       C  0.65982890  0.28447945  0.48876888    -0.08900
C2631       C  0.67877099  0.32515826  0.49130912    -0.19200
C2632       C  0.69391811  0.32318443  0.50150712    -0.24000
C2633       C  0.70580718  0.33606842  0.50205773     0.26400
C2634       C  0.72178591  0.33204809  0.50141993    -0.20700
C2635       C  0.73339921  0.34369203  0.50094553    -0.10400
C2636       C  0.72930601  0.35968511  0.50123166    -0.10900
C2637       C  0.71334095  0.36374025  0.50317752    -0.03800
C2638       C  0.70171522  0.35208494  0.50376664    -0.19000
H2639       H  0.62728064  0.30744251  0.49698834     0.10100
H2640       H  0.64729119  0.32813236  0.49493421     0.10200
H2641       H  0.68338485  0.29281569  0.48455954     0.09900
H2642       H  0.66358322  0.27234350  0.48724226     0.11000
H2643       H  0.67460104  0.33675928  0.48355579     0.11100
H2644       H  0.69802141  0.31157116  0.50942120     0.13000
H2645       H  0.72530905  0.31982770  0.50050508     0.09500
H2646       H  0.74558422  0.34014959  0.49936486     0.11600
H2647       H  0.70980405  0.37595550  0.50376235     0.08200
H2648       H  0.68960605  0.35574785  0.50572844     0.10900
C2649       C  0.61573296  0.18725576  0.93256022    -0.03700
C2650       C  0.62049362  0.18827880  0.89442709    -0.06300
C2651       C  0.62604941  0.17499555  0.87552154    -0.21400
C2652       C  0.62728900  0.16053960  0.89461027     0.24400
C2653       C  0.62132087  0.15920254  0.93174966    -0.18900
C2654       C  0.61549746  0.17245301  0.95048611    -0.08900
C2655       C  0.63623993  0.14770895  0.87616006    -0.19200
C2656       C  0.64588794  0.13814474  0.89585638    -0.24000
C2657       C  0.65872929  0.12927713  0.87712268     0.26400
C2658       C  0.67320663  0.12799879  0.89582984    -0.20700
C2659       C  0.68647984  0.12263308  0.87645057    -0.10400
C2660       C  0.68543391  0.11814183  0.83817524    -0.10900
C2661       C  0.67061718  0.11795382  0.82064003    -0.03800
C2662       C  0.65738057  0.12351794  0.83988813    -0.19000
H2663       H  0.62069603  0.19951394  0.87983663     0.10100
H2664       H  0.63041147  0.17627606  0.84675002     0.10200
H2665       H  0.62171408  0.14809551  0.94682904     0.09900
H2666       H  0.61185617  0.17130921  0.97985849     0.11000
H2667       H  0.63707205  0.14804992  0.84538706     0.11100
H2668       H  0.64623914  0.13899470  0.92661534     0.13000
H2669       H  0.67450409  0.13218999  0.92467255     0.09500
H2670       H  0.69771245  0.12279041  0.89080979     0.11600
H2671       H  0.66941800  0.11449455  0.79121705     0.08200
H2672       H  0.64626303  0.12389227  0.82508378     0.10900
C2673       C  0.70206114  0.12104249  0.17897391    -0.03700
C2674       C  0.70594731  0.12455237  0.14107885    -0.06300
C2675       C  0.69574823  0.13336081  0.11850754    -0.21400
C2676       C  0.68168506  0.13910354  0.13371748     0.24400
C2677       C  0.67713091  0.13438310  0.17048426    -0.18900
C2678       C  0.68723198  0.12532589  0.19289086    -0.08900
C2679       C  0.67267112  0.15082105  0.11149366    -0.19200
C2680       C  0.66529208  0.16299502  0.12805344    -0.24000
C2681       C  0.65743066  0.17571620  0.10635722     0.26400
C2682       C  0.64504191  0.18386301  0.12357511    -0.20700
C2683       C  0.63689175  0.19547082  0.10359757    -0.10400
C2684       C  0.64117775  0.19938231  0.06618067    -0.10900
C2685       C  0.65413170  0.19183135  0.04962124    -0.03800
C2686       C  0.66218349  0.18009486  0.06948245    -0.19000
H2687       H  0.71734022  0.12139276  0.12974252     0.10100
H2688       H  0.69937734  0.13665960  0.09006571     0.10200
H2689       H  0.66608125  0.13820731  0.18249496     0.09900
H2690       H  0.68401314  0.12286161  0.22209308     0.11000
H2691       H  0.67321693  0.15005131  0.08077412     0.11100
H2692       H  0.66490177  0.16371768  0.15882185     0.13000
H2693       H  0.64134751  0.18090039  0.15217920     0.09500
H2694       H  0.62698877  0.20112955  0.11714534     0.11600
H2695       H  0.65770662  0.19459637  0.02082067     0.08200
H2696       H  0.67208299  0.17450803  0.05583854     0.10900
C2697       C  0.64576422  0.27339495  0.00817595    -0.03700
C2698       C  0.66196620  0.27034903  0.00792297    -0.06300
C2699       C  0.67282043  0.28274934  0.00603708    -0.21400
C2700       C  0.66778978  0.29848092  0.00407402     0.24400
C2701       C  0.65157156  0.30152446  0.00582685    -0.18900
C2702       C  0.64074174  0.28914583  0.00776060    -0.08900
C2703       C  0.67985820  0.31119609  0.00030211    -0.19200
C2704       C  0.67681162  0.32620181  0.98973247    -0.24000
C2705       C  0.68923534  0.33851208  0.98568199     0.26400
C2706       C  0.68527600  0.35443329  0.99040194    -0.20700
C2707       C  0.69685373  0.36619108  0.98890474    -0.10400
C2708       C  0.71263267  0.36225929  0.98226325    -0.10900
C2709       C  0.71640298  0.34643184  0.97529140    -0.03800
C2710       C  0.70487748  0.33472357  0.97686770    -0.19000
H2711       H  0.66625956  0.25837815  0.00805813     0.10100
H2712       H  0.68522697  0.28000352  0.00515389     0.10200
H2713       H  0.64707748  0.31338388  0.00564489     0.09900
H2714       H  0.62834819  0.29194813  0.00807768     0.11000
H2715       H  0.69190431  0.30785124  0.00610837     0.11100
H2716       H  0.66483519  0.32987621  0.98454358     0.13000
H2717       H  0.67327015  0.35773016  0.99658386     0.09500
H2718       H  0.69355334  0.37824849  0.99449039     0.11600
H2719       H  0.72841272  0.34298736  0.96967167     0.08200
H2720       H  0.70832662  0.32272319  0.97132348     0.10900
C2721       C  0.61055254  0.25594181  0.88324752    -0.03700
C2722       C  0.62405514  0.25422753  0.86069415    -0.06300
C2723       C  0.62380008  0.25790762  0.82219035    -0.21400
C2724       C  0.61007630  0.26343316  0.80480240     0.24400
C2725       C  0.59654864  0.26555013  0.82737692    -0.18900
C2726       C  0.59680956  0.26181986  0.86633196    -0.08900
C2727       C  0.61075340  0.26624584  0.76304954    -0.19200
C2728       C  0.59893108  0.27145862  0.74092253    -0.24000
C2729       C  0.60073559  0.27268985  0.69886780     0.26400
C2730       C  0.58763833  0.27041653  0.67528729    -0.20700
C2731       C  0.58946772  0.26942641  0.63574387    -0.10400
C2732       C  0.60445305  0.27070388  0.61925322    -0.10900
C2733       C  0.61732724  0.27415057  0.64261853    -0.03800
C2734       C  0.61547970  0.27532899  0.68185377    -0.19000
H2735       H  0.63489496  0.24980236  0.87264808     0.10100
H2736       H  0.63442336  0.25620128  0.80576644     0.10200
H2737       H  0.58572123  0.26982787  0.81526212     0.09900
H2738       H  0.58622515  0.26327116  0.88300612     0.11000
H2739       H  0.62173854  0.26309742  0.74946664     0.11100
H2740       H  0.58747649  0.27379209  0.75303173     0.13000
H2741       H  0.57610993  0.26861430  0.68758851     0.09500
H2742       H  0.57933677  0.26676451  0.61836291     0.11600
H2743       H  0.62897780  0.27547313  0.63063003     0.08200
H2744       H  0.62573586  0.27796683  0.69875021     0.10900
C2745       C  0.59250118  0.24544760  0.11723935    -0.03700
C2746       C  0.58409315  0.23441929  0.13913737    -0.06300
C2747       C  0.58214405  0.23647636  0.17813898    -0.21400
C2748       C  0.58868886  0.24948976  0.19665376     0.24400
C2749       C  0.59687735  0.26077232  0.17479194    -0.18900
C2750       C  0.59873084  0.25876494  0.13540519    -0.08900
C2751       C  0.58662800  0.25050291  0.23864671    -0.19200
C2752       C  0.59596485  0.25881891  0.26212556    -0.24000
C2753       C  0.59484807  0.25779930  0.30444302     0.26400
C2754       C  0.60127101  0.26990119  0.32664287    -0.20700
C2755       C  0.60135553  0.26882025  0.36642407    -0.10400
C2756       C  0.59516795  0.25549062  0.38490508    -0.10900
C2757       C  0.58862850  0.24344999  0.36271867    -0.03800
C2758       C  0.58850055  0.24454359  0.32309321    -0.19000
H2759       H  0.57909471  0.22402819  0.12619276     0.10100
H2760       H  0.57573092  0.22762988  0.19409477     0.10200
H2761       H  0.60180074  0.27115578  0.18780332     0.09900
H2762       H  0.60525941  0.26747307  0.11931906     0.11000
H2763       H  0.57736392  0.24329476  0.25077462     0.11100
H2764       H  0.60506972  0.26631737  0.25031924     0.13000
H2765       H  0.60640707  0.28015638  0.31312899     0.09500
H2766       H  0.60663030  0.27823453  0.38264257     0.11600
H2767       H  0.58390369  0.23293993  0.37595374     0.08200
H2768       H  0.58394222  0.23465649  0.30737484     0.10900
C2769       C  0.38172213  0.20475322  0.56273996    -0.03700
C2770       C  0.37674684  0.19093921  0.54466521    -0.06300
C2771       C  0.36701565  0.18024920  0.56383150    -0.21400
C2772       C  0.36207097  0.18328531  0.60113895     0.24400
C2773       C  0.36840752  0.19624874  0.62043127    -0.18900
C2774       C  0.37812089  0.20690539  0.60133570    -0.08900
C2775       C  0.34967248  0.17329109  0.61840630    -0.19200
C2776       C  0.33848897  0.17922128  0.64141029    -0.24000
C2777       C  0.32553139  0.16970739  0.65806455     0.26400
C2778       C  0.31825011  0.17497895  0.69145418    -0.20700
C2779       C  0.30686910  0.16577776  0.70967522    -0.10400
C2780       C  0.30242586  0.15116494  0.69458366    -0.10900
C2781       C  0.30890401  0.14642173  0.65973965    -0.03800
C2782       C  0.32031064  0.15559689  0.64160637    -0.19000
H2783       H  0.37910729  0.18914678  0.51474835     0.10100
H2784       H  0.36242601  0.17020695  0.54860068     0.10200
H2785       H  0.36531756  0.19854919  0.64972129     0.09900
H2786       H  0.38183861  0.21746934  0.61589503     0.11000
H2787       H  0.34932492  0.16103324  0.61013228     0.11100
H2788       H  0.33895216  0.19157177  0.64904560     0.13000
H2789       H  0.32182411  0.18596577  0.70430857     0.09500
H2790       H  0.30204321  0.16981244  0.73638165     0.11600
H2791       H  0.30559903  0.13530779  0.64713064     0.08200
H2792       H  0.32507968  0.15147506  0.61498510     0.10900
C2793       C  0.36003344  0.21334412  0.42982819    -0.03700
C2794       C  0.36287762  0.21020585  0.39129847    -0.06300
C2795       C  0.35491243  0.19800496  0.37295378    -0.21400
C2796       C  0.34427515  0.18842868  0.39296896     0.24400
C2797       C  0.34106581  0.19189179  0.43126704    -0.18900
C2798       C  0.34884150  0.20424522  0.44943731    -0.08900
C2799       C  0.33642637  0.17525681  0.37278204    -0.19200
C2800       C  0.33117906  0.16216546  0.39048704    -0.24000
C2801       C  0.32192369  0.14979228  0.37091317     0.26400
C2802       C  0.31032780  0.14170683  0.39158513    -0.20700
C2803       C  0.29967200  0.13186061  0.37307818    -0.10400
C2804       C  0.30071956  0.12956544  0.33369287    -0.10900
C2805       C  0.31329005  0.13637548  0.31362620    -0.03800
C2806       C  0.32376776  0.14649419  0.33201120    -0.19000
H2807       H  0.37144775  0.21703362  0.37551758     0.10100
H2808       H  0.35739410  0.19575432  0.34328518     0.10200
H2809       H  0.33252998  0.18514954  0.44729279     0.09900
H2810       H  0.34649440  0.20631964  0.47924810     0.11000
H2811       H  0.33492961  0.17649867  0.34230040     0.11100
H2812       H  0.33267606  0.16093976  0.42096576     0.13000
H2813       H  0.30881259  0.14386902  0.42167352     0.09500
H2814       H  0.28999731  0.12685004  0.38908835     0.11600
H2815       H  0.31421768  0.13497753  0.28312690     0.08200
H2816       H  0.33291681  0.15211905  0.31546005     0.10900
C2817       C  0.27337661  0.36217461  0.50223346    -0.03700
C2818       C  0.26967440  0.34637793  0.50994100    -0.06300
C2819       C  0.28133036  0.33485781  0.50949320    -0.21400
C2820       C  0.29694757  0.33875419  0.50084484     0.24400
C2821       C  0.30081577  0.35466659  0.49453846    -0.18900
C2822       C  0.28913140  0.36624708  0.49524607    -0.08900
C2823       C  0.30865195  0.32579932  0.49881404    -0.19200
C2824       C  0.32236597  0.32670720  0.47973429    -0.24000
C2825       C  0.33356563  0.31333858  0.47746817     0.26400
C2826       C  0.34965861  0.31653698  0.47390315    -0.20700
C2827       C  0.36060236  0.30430739  0.47395031    -0.10400
C2828       C  0.35566679  0.28856591  0.47695606    -0.10900
C2829       C  0.33949736  0.28530465  0.47829191    -0.03800
C2830       C  0.32855371  0.29755648  0.47857084    -0.19000
H2831       H  0.25767243  0.34283286  0.51555116     0.10100
H2832       H  0.27803439  0.32274912  0.51491641     0.10200
H2833       H  0.31278459  0.35826562  0.48902046     0.09900
H2834       H  0.29237318  0.37832534  0.48931083     0.11000
H2835       H  0.30552307  0.31484377  0.51282948     0.11100
H2836       H  0.32579760  0.33762186  0.46602668     0.13000
H2837       H  0.35381305  0.32856278  0.47238511     0.09500
H2838       H  0.37297739  0.30721879  0.47269050     0.11600
H2839       H  0.33530988  0.27330941  0.48044937     0.08200
H2840       H  0.31620027  0.29461267  0.47980849     0.10900
C2841       C  0.44457534  0.24641108  0.51193703    -0.03700
C2842       C  0.45249181  0.26042482  0.52076748    -0.06300
C2843       C  0.46865591  0.26049124  0.52718775    -0.21400
C2844       C  0.47746490  0.24659759  0.52473346     0.24400
C2845       C  0.46946055  0.23240176  0.51720280    -0.18900
C2846       C  0.45316671  0.23233062  0.51103397    -0.08900
C2847       C  0.49491342  0.24793012  0.52824109    -0.19200
C2848       C  0.50522972  0.23602115  0.52411635    -0.24000
C2849       C  0.52260690  0.23844424  0.52309997     0.26400
C2850       C  0.53261917  0.22576677  0.53134095    -0.20700
C2851       C  0.54896638  0.22734997  0.52796406    -0.10400
C2852       C  0.55566666  0.24165584  0.51599448    -0.10900
C2853       C  0.54564912  0.25438266  0.50817879    -0.03800
C2854       C  0.52936738  0.25279767  0.51146246    -0.19000
H2855       H  0.44622014  0.27147274  0.52206223     0.10100
H2856       H  0.47437302  0.27159756  0.53311554     0.10200
H2857       H  0.47562892  0.22136345  0.51521914     0.09900
H2858       H  0.44738627  0.22134229  0.50432527     0.11000
H2859       H  0.49948971  0.25962285  0.53357407     0.11100
H2860       H  0.50103177  0.22407702  0.52095644     0.13000
H2861       H  0.52776015  0.21453722  0.54002914     0.09500
H2862       H  0.55633210  0.21730368  0.53411429     0.11600
H2863       H  0.55036455  0.26553334  0.49848897     0.08200
H2864       H  0.52216584  0.26271876  0.50346993     0.10900
C2865       C  0.28588138  0.15302767  0.20053676    -0.03700
C2866       C  0.28867862  0.14971838  0.16206646    -0.06300
C2867       C  0.29712367  0.16024630  0.13935704    -0.21400
C2868       C  0.30322160  0.17416549  0.15466707     0.24400
C2869       C  0.30013339  0.17770806  0.19297381    -0.18900
C2870       C  0.29150106  0.16723402  0.21565705    -0.08900
C2871       C  0.31284708  0.18450884  0.12975605    -0.19200
C2872       C  0.32462265  0.19359694  0.14272398    -0.24000
C2873       C  0.33569049  0.20198441  0.11696253     0.26400
C2874       C  0.35115565  0.20459936  0.12910617    -0.20700
C2875       C  0.36219478  0.21154136  0.10478622    -0.10400
C2876       C  0.35792969  0.21617184  0.06786729    -0.10900
C2877       C  0.34228839  0.21407005  0.05619098    -0.03800
C2878       C  0.33127271  0.20710087  0.08047256    -0.19000
H2879       H  0.28443017  0.13891796  0.14953112     0.10100
H2880       H  0.29924363  0.15730443  0.10987082     0.10200
H2881       H  0.30431510  0.18853383  0.20543414     0.09900
H2882       H  0.28949332  0.17011121  0.24521581     0.11000
H2883       H  0.31121915  0.18327230  0.09932733     0.11100
H2884       H  0.32727284  0.19361521  0.17288856     0.13000
H2885       H  0.35482043  0.20088030  0.15718867     0.09500
H2886       H  0.37411614  0.21308012  0.11473229     0.11600
H2887       H  0.33855826  0.21769937  0.02810025     0.08200
H2888       H  0.31933288  0.20576880  0.07056808     0.10900
C2889       C  0.31935020  0.12405451  0.81962754    -0.03700
C2890       C  0.33308622  0.12540096  0.79769847    -0.06300
C2891       C  0.34650861  0.13249057  0.81272125    -0.21400
C2892       C  0.34659447  0.13809535  0.85013909     0.24400
C2893       C  0.33327418  0.13551584  0.87312283    -0.18900
C2894       C  0.31976065  0.12862369  0.85790818    -0.08900
C2895       C  0.35946048  0.14884289  0.86187331    -0.19200
C2896       C  0.36270133  0.15234195  0.89825863    -0.24000
C2897       C  0.37212410  0.16631790  0.90918424     0.26400
C2898       C  0.37951605  0.16659367  0.94474663    -0.20700
C2899       C  0.38595585  0.18055908  0.95875179    -0.10400
C2900       C  0.38481279  0.19460622  0.93773632    -0.10900
C2901       C  0.37820348  0.19412585  0.90123588    -0.03800
C2902       C  0.37194080  0.18014294  0.88707377    -0.19000
H2903       H  0.33308078  0.12216470  0.76797139     0.10100
H2904       H  0.35654876  0.13442396  0.79435458     0.10200
H2905       H  0.33273701  0.13991429  0.90187296     0.09900
H2906       H  0.30931502  0.12779561  0.87539264     0.11000
H2907       H  0.36579185  0.15493386  0.83939275     0.11100
H2908       H  0.35758039  0.14534823  0.92098400     0.13000
H2909       H  0.37969392  0.15614611  0.96242721     0.09500
H2910       H  0.39086190  0.18056460  0.98711270     0.11600
H2911       H  0.37704045  0.20476157  0.88447147     0.08200
H2912       H  0.36599068  0.18051218  0.85995666     0.10900
C2913       C  0.35628330  0.28292769  0.99972488    -0.03700
C2914       C  0.36080328  0.29870784  0.00408396    -0.06300
C2915       C  0.34950264  0.31061462  0.00605138    -0.21400
C2916       C  0.33342591  0.30710633  0.00315022     0.24400
C2917       C  0.32886177  0.29125102  0.99986746    -0.18900
C2918       C  0.34016105  0.27932681  0.99819220    -0.08900
C2919       C  0.32188018  0.32027974  0.00447378    -0.19200
C2920       C  0.30731170  0.31952168  0.98946829    -0.24000
C2921       C  0.29569433  0.33265202  0.99079099     0.26400
C2922       C  0.27971338  0.32910162  0.98600051    -0.20700
C2923       C  0.26831197  0.34088972  0.98812725    -0.10400
C2924       C  0.27260795  0.35662548  0.99458543    -0.10900
C2925       C  0.28863497  0.36031263  0.99799967    -0.03800
C2926       C  0.30005552  0.34848414  0.99612927    -0.19000
H2927       H  0.37309954  0.30189351  0.00553980     0.10100
H2928       H  0.35336357  0.32268035  0.00910129     0.10200
H2929       H  0.31660781  0.28794389  0.99890282     0.09900
H2930       H  0.33625051  0.26728068  0.99508385     0.11000
H2931       H  0.32578812  0.33106798  0.01774939     0.11100
H2932       H  0.30348148  0.30871731  0.97608981     0.13000
H2933       H  0.27598701  0.31708292  0.98136194     0.09500
H2934       H  0.25607859  0.33762644  0.98516212     0.11600
H2935       H  0.29234553  0.37231459  0.00285386     0.08200
H2936       H  0.31224191  0.35187372  0.99866168     0.10900
C2937       C  0.39483140  0.26207473  0.87408611    -0.03700
C2938       C  0.40962643  0.26629800  0.85942805    -0.06300
C2939       C  0.41171397  0.26862311  0.82029025    -0.21400
C2940       C  0.39902043  0.26704180  0.79520060     0.24400
C2941       C  0.38424151  0.26280473  0.80997917    -0.18900
C2942       C  0.38218219  0.26039830  0.84888453    -0.08900
C2943       C  0.40157556  0.26891000  0.75360230    -0.19200
C2944       C  0.39005350  0.27375322  0.73016391    -0.24000
C2945       C  0.39087647  0.27356210  0.68796683     0.26400
C2946       C  0.37665241  0.27404852  0.66802257    -0.20700
C2947       C  0.37637320  0.27256516  0.62865089    -0.10400
C2948       C  0.39035991  0.27073109  0.60802466    -0.10900
C2949       C  0.40472934  0.27106797  0.62754958    -0.03800
C2950       C  0.40500895  0.27242141  0.66726736    -0.19000
H2951       H  0.41964993  0.26748267  0.87808747     0.10100
H2952       H  0.42325980  0.27164164  0.80956385     0.10200
H2953       H  0.37430194  0.26084281  0.79149785     0.09900
H2954       H  0.37067771  0.25697479  0.85914897     0.11000
H2955       H  0.41301990  0.26584282  0.74240317     0.11100
H2956       H  0.37889676  0.27721287  0.74247438     0.13000
H2957       H  0.36560204  0.27503006  0.68310067     0.09500
H2958       H  0.36511047  0.27243192  0.61442532     0.11600
H2959       H  0.41568801  0.26965629  0.61231257     0.08200
H2960       H  0.41625025  0.27238234  0.68143760     0.10900
C2961       C  0.40779084  0.26146175  0.37510116    -0.03700
C2962       C  0.39937156  0.27393211  0.35863589    -0.06300
C2963       C  0.39985396  0.27654330  0.31940636    -0.21400
C2964       C  0.40897051  0.26695782  0.29574438     0.24400
C2965       C  0.41780058  0.25474389  0.31238414    -0.18900
C2966       C  0.41715859  0.25200849  0.35162464    -0.08900
C2967       C  0.40769144  0.26902851  0.25380366    -0.19200
C2968       C  0.41866035  0.26400086  0.22908552    -0.24000
C2969       C  0.41633276  0.26329616  0.18716019     0.26400
C2970       C  0.42570911  0.25282453  0.16651638    -0.20700
C2971       C  0.42303028  0.25029818  0.12795205    -0.10400
C2972       C  0.41107453  0.25840789  0.10876217    -0.10900
C2973       C  0.40224697  0.26961995  0.12862870    -0.03800
C2974       C  0.40479688  0.27202042  0.16757960    -0.19000
H2975       H  0.39191988  0.28133505  0.37591158     0.10100
H2976       H  0.39281750  0.28590728  0.30738230     0.10200
H2977       H  0.42463672  0.24678622  0.29516395     0.09900
H2978       H  0.42372203  0.24227380  0.36348509     0.11000
H2979       H  0.39695584  0.27427316  0.24327615     0.11100
H2980       H  0.42945512  0.25901556  0.24007911     0.13000
H2981       H  0.43477430  0.24607346  0.18061387     0.09500
H2982       H  0.43014522  0.24170676  0.11324415     0.11600
H2983       H  0.39299292  0.27606136  0.11442845     0.08200
H2984       H  0.39760578  0.28055818  0.18209668     0.10900
C2985       C  0.44556214  0.23926068  0.97658542    -0.03700
C2986       C  0.45408670  0.25287384  0.96694295    -0.06300
C2987       C  0.47026997  0.25220025  0.96058360    -0.21400
C2988       C  0.47845488  0.23796485  0.96410187     0.24400
C2989       C  0.46982389  0.22416505  0.97207583    -0.18900
C2990       C  0.45355007  0.22483080  0.97821596    -0.08900
C2991       C  0.49593080  0.23834136  0.96034979    -0.19200
C2992       C  0.50560336  0.22703762  0.97362420    -0.24000
C2993       C  0.52307448  0.22851495  0.97451668     0.26400
C2994       C  0.53214364  0.21482739  0.97835127    -0.20700
C2995       C  0.54846035  0.21571104  0.98270439    -0.10400
C2996       C  0.55610946  0.23035406  0.98382806    -0.10900
C2997       C  0.54709632  0.24406553  0.97937682    -0.03800
C2998       C  0.53079151  0.24318192  0.97479110    -0.19000
H2999       H  0.44828777  0.26416156  0.96494474     0.10100
H3000       H  0.47650621  0.26299033  0.95402160     0.10200
H3001       H  0.47550151  0.21284411  0.97385094     0.09900
H3002       H  0.44729335  0.21410619  0.98520948     0.11000
H3003       H  0.50100194  0.24888507  0.94793595     0.11100
H3004       H  0.50067725  0.21634997  0.98557171     0.13000
H3005       H  0.52654182  0.20338676  0.97859724     0.09500
H3006       H  0.55502611  0.20492147  0.98630149     0.11600
H3007       H  0.55260380  0.25554056  0.98032429     0.08200
H3008       H  0.52429689  0.25406234  0.97306075     0.10900
loop_ 
_geom_bond_atom_site_label_1 
_geom_bond_atom_site_label_2 
_geom_bond_distance 
_geom_bond_site_symmetry_2 
_ccdc_geom_bond_type 
O1           C16   1.264       .  A
O1           Al9   1.900       .  S
C2           O12   1.262       .  A
C2            O3   1.264       .  A
C2         C2937   1.482       .  S
O3           Al5   1.912       .  S
O4            C6   1.257       .  A
O4           Al5   1.892       .  S
Al5          O13   1.890       .  S
Al5          O15   1.919   1_556  S
Al5          O14   1.780       .  S
C6           O19   1.261       .  A
C6         C2900   1.481       .  S
O7           C17   1.266       .  A
O7           Al9   1.910   1_556  S
O8           C21   1.264       .  A
O8          Al18   1.916   1_554  S
Al9          O22   1.912       .  S
Al9          O19   1.919   1_554  S
Al9          O14   1.786   1_554  S
O10          C17   1.267       .  A
O10         Al18   1.926       .  S
O11          C20   1.264       .  A
O11         Al18   1.928       .  S
O12         Al18   1.901       .  S
O13          C20   1.257       .  A
O14         Al18   1.782       .  S
O15          C16   1.266       .  A
C16        C2876   1.482       .  S
C17        C2985   1.487       .  S
C20        C2913   1.487       .  S
C21          O22   1.263       .  A
C21        C2972   1.479       .  S
O23          C38   1.270       .  A
O23         Al31   1.939       .  S
C24          O34   1.265       .  A
C24          O25   1.264       .  A
C24        C2948   1.478       .  S
O25         Al27   1.911       .  S
O26          C28   1.263       .  A
O26         Al27   1.912       .  S
Al27         O35   1.926       .  S
Al27         O37   1.892       .  S
Al27         O36   1.773       .  S
C28          O41   1.263       .  A
C28        C2841   1.485       .  S
O29          C39   1.269       .  A
O29         Al31   1.949       .  S
O30          C43   1.264       .  A
O30         Al40   1.927       .  S
Al31         O44   1.896       .  S
Al31         O41   1.913       .  S
Al31         O36   1.781       .  S
O32          C39   1.257       .  A
O32         Al40   1.874       .  S
O33          C42   1.263       .  A
O33         Al40   1.901       .  S
O34         Al40   1.917       .  S
O35          C42   1.266       .  A
O36         Al40   1.773       .  S
O37          C38   1.264       .  A
C38        C2961   1.482       .  S
C39        C2769   1.473       .  S
C42        C2828   1.482       .  S
C43          O44   1.260       .  A
C43        C2793   1.479       .  S
O45          C60   1.265       .  A
O45         Al53   1.914       .  S
C46          O56   1.265       .  A
C46          O47   1.266       .  A
C46        C2721   1.483       .  S
O47         Al49   1.917   1_556  S
O48          C50   1.265       .  A
O48         Al49   1.926   1_556  S
Al49         O57   1.917       .  S
Al49         O59   1.920       .  S
Al49         O58   1.783   1_554  S
C50          O63   1.262       .  A
C50        C2996   1.486       .  S
O51          C61   1.262       .  A
O51         Al53   1.921   1_556  S
O52          C65   1.265       .  A
O52         Al62   1.923   1_554  S
Al53         O66   1.888       .  S
Al53         O63   1.901   1_554  S
Al53         O58   1.782   1_554  S
O54          C61   1.259       .  A
O54         Al62   1.894       .  S
O55          C64   1.263       .  A
O55         Al62   1.911   1_554  S
O56         Al62   1.905       .  S
O57          C64   1.263       .  A
O58         Al62   1.780       .  S
O59          C60   1.266       .  A
C60        C2745   1.486       .  S
C61        C2649   1.478       .  S
C64        C2697   1.488       .  S
C65          O66   1.260       .  A
C65        C2684   1.478       .  S
O67          C82   1.261       .  A
O67         Al75   1.890       .  S
C68          O78   1.265       .  A
C68          O69   1.266       .  A
C68        C2732   1.479       .  S
O69         Al71   1.918       .  S
O70          C72   1.256       .  A
O70         Al71   1.877       .  S
Al71         O79   1.881       .  S
Al71         O81   1.918       .  S
Al71         O80   1.769       .  S
C72          O85   1.267       .  A
C72        C2601   1.479       .  S
O73          C83   1.265       .  A
O73         Al75   1.913       .  S
O74          C87   1.267       .  A
O74         Al84   1.909       .  S
Al75         O88   1.931       .  S
Al75         O85   1.943       .  S
Al75         O80   1.779       .  S
O76          C83   1.266       .  A
O76         Al84   1.924       .  S
O77          C86   1.267       .  A
O77         Al84   1.943       .  S
O78         Al84   1.911       .  S
O79          C86   1.256       .  A
O80         Al84   1.777       .  S
O81          C82   1.264       .  A
C82        C2588   1.477       .  S
C83        C2852   1.488       .  S
C86        C2625   1.483       .  S
C87          O88   1.270       .  A
C87        C2756   1.486       .  S
O89         C104   1.262       .  A
O89         Al97   1.890       .  S
C90         O100   1.263       .  A
C90          O91   1.264       .  A
C90        C2529   1.478       .  S
O91         Al93   1.910       .  S
O92          C94   1.260       .  A
O92         Al93   1.905       .  S
Al93        O101   1.890       .  S
Al93        O103   1.911   1_554  S
Al93        O102   1.784       .  S
C94         O107   1.262       .  A
C94        C2492   1.488       .  S
O95         C105   1.265       .  A
O95         Al97   1.910   1_554  S
O96         C109   1.265       .  A
O96        Al106   1.924       .  S
Al97        O110   1.908       .  S
Al97        O107   1.920   1_556  S
Al97        O102   1.788   1_556  S
O98         C105   1.267   1_556  A
O98        Al106   1.922       .  S
O99         C108   1.264       .  A
O99        Al106   1.934   1_554  S
O100       Al106   1.909   1_554  S
O101        C108   1.257       .  A
O102       Al106   1.786   1_554  S
O103        C104   1.263       .  A
C104       C2457   1.472       .  S
C105       C2553   1.486       .  S
C108       C2924   1.488   1_554  S
C109        O110   1.262       .  A
C109       C2505   1.482       .  S
O111        C126   1.272       .  A
O111       Al119   1.941       .  S
C112        O122   1.268       .  A
C112        O113   1.264       .  A
C112       C2540   1.483       .  S
O113       Al115   1.905       .  S
O114        C116   1.266       .  A
O114       Al115   1.932       .  S
Al115       O123   1.942       .  S
Al115       O125   1.894       .  S
Al115       O124   1.779       .  S
C116        O129   1.260       .  A
C116       C2444   1.487       .  S
O117        C127   1.268       .  A
O117       Al119   1.946       .  S
O118        C131   1.267       .  A
O118       Al128   1.939       .  S
Al119       O132   1.887       .  S
Al119       O129   1.899       .  S
Al119       O124   1.779       .  S
O120        C127   1.256       .  A
O120       Al128   1.874       .  S
O121        C130   1.261       .  A
O121       Al128   1.891       .  S
O122       Al128   1.930       .  S
O123        C130   1.267       .  A
O124       Al128   1.770       .  S
O125        C126   1.264       .  A
C126       C2516   1.487       .  S
C127       C2396   1.472       .  S
C130       C2817   1.484       .  S
C131        O132   1.259       .  A
C131       C2409   1.486       .  S
O133        C148   1.258       .  A
O133       Al141   1.897       .  S
C134        O144   1.268       .  A
C134        O135   1.263       .  A
C134       C2337   1.487       .  S
O135       Al137   1.909       .  S
O136        C138   1.260       .  A
O136       Al137   1.878       .  S
Al137       O145   1.882       .  S
Al137       O147   1.902       .  S
Al137       O146   1.773       .  S
C138        O151   1.270       .  A
C138       C2289   1.479       .  S
O139        C149   1.263       .  A
O139       Al141   1.916   1_556  S
O140        C153   1.267       .  A
O140       Al150   1.903   1_554  S
Al141       O154   1.925       .  S
Al141       O151   1.944   1_554  S
Al141       O146   1.781   1_554  S
O142        C149   1.262       .  A
O142       Al150   1.914       .  S
O143        C152   1.268       .  A
O143       Al150   1.945       .  S
O144       Al150   1.930       .  S
O145        C152   1.258       .  A
O146       Al150   1.782       .  S
O147        C148   1.258   1_556  A
C148       C2265   1.476       .  S
C149       C2564   1.491       .  S
C152       C2313   1.480   1_556  S
C153        O154   1.270       .  A
C153       C2372   1.484       .  S
O155        C170   1.257       .  A
O155       Al163   1.881       .  S
C156        O166   1.264       .  A
C156        O157   1.267       .  A
C156       C2361   1.486       .  S
O157       Al159   1.923       .  S
O158        C160   1.259       .  A
O158       Al159   1.887       .  S
Al159       O167   1.908       .  S
Al159       O169   1.935       .  S
Al159       O168   1.779       .  S
C160        O173   1.267       .  A
C160       C2228   1.481       .  S
O161        C171   1.264       .  A
O161       Al163   1.913       .  S
O162        C175   1.265       .  A
O162       Al172   1.907       .  S
Al163       O176   1.924       .  S
Al163       O173   1.945       .  S
Al163       O168   1.782       .  S
O164        C171   1.264       .  A
O164       Al172   1.912       .  S
O165        C174   1.265       .  A
O165       Al172   1.927       .  S
O166       Al172   1.907       .  S
O167        C174   1.263       .  A
O168       Al172   1.780       .  S
O169        C170   1.266       .  A
C170       C2193   1.477       .  S
C171       C2433   1.486       .  S
C174       C2252   1.490       .  S
C175        O176   1.268       .  A
C175       C2348   1.483       .  S
O177        C192   1.260       .  A
O177       Al185   1.886       .  S
C178        O188   1.266       .  A
C178        O179   1.269       .  A
C178       C2108   1.486       .  S
O179       Al181   1.930       .  S
O180        C182   1.257       .  A
O180       Al181   1.890       .  S
Al181       O189   1.899   1_554  S
Al181       O191   1.927   1_554  S
Al181       O190   1.784       .  S
C182        O195   1.261       .  A
C182       C2169   1.482       .  S
O183        C193   1.262       .  A
O183       Al185   1.915   1_554  S
O184        C197   1.268       .  A
O184       Al194   1.917   1_556  S
Al185       O198   1.919       .  S
Al185       O195   1.918   1_556  S
Al185       O190   1.788   1_556  S
O186        C193   1.262       .  A
O186       Al194   1.912       .  S
O187        C196   1.259   1_554  A
O187       Al194   1.920       .  S
O188       Al194   1.904       .  S
O189        C196   1.257       .  A
O190       Al194   1.787       .  S
O191        C192   1.266       .  A
C192       C2145   1.484       .  S
C193       C2121   1.486       .  S
C196       C2060   1.488       .  S
C197        O198   1.267       .  A
C197       C2073   1.487       .  S
O199        C214   1.269       .  A
O199       Al207   1.929       .  S
C200        O210   1.266       .  A
C200        O201   1.266       .  A
C200       C2097   1.484       .  S
O201       Al203   1.920       .  S
O202        C204   1.265       .  A
O202       Al203   1.924       .  S
Al203       O211   1.935       .  S
Al203       O213   1.902       .  S
Al203       O212   1.776       .  S
C204        O217   1.260       .  A
C204       C1988   1.485       .  S
O205        C215   1.269       .  A
O205       Al207   1.944       .  S
O206        C219   1.264       .  A
O206       Al216   1.934       .  S
Al207       O220   1.889       .  S
Al207       O217   1.898       .  S
Al207       O212   1.778       .  S
O208        C215   1.258       .  A
O208       Al216   1.874       .  S
O209        C218   1.262       .  A
O209       Al216   1.894       .  S
O210       Al216   1.924       .  S
O211        C218   1.268       .  A
O212       Al216   1.773       .  S
O213        C214   1.265       .  A
C214       C2084   1.487       .  S
C215       C2012   1.470       .  S
C218       C1953   1.482       .  S
C219        O220   1.257       .  A
C219       C2025   1.481       .  S
O221        C236   1.268       .  A
O221       Al229   1.924       .  S
C222        O232   1.268       .  A
C222        O223   1.264       .  A
C222       C1881   1.481       .  S
O223       Al225   1.903   1_554  S
O224        C226   1.268   1_556  A
O224       Al225   1.935       .  S
Al225       O233   1.952       .  S
Al225       O235   1.919       .  S
Al225       O234   1.777       .  S
C226        O239   1.263       .  A
C226       C2132   1.486       .  S
O227        C237   1.265       .  A
O227       Al229   1.936   1_554  S
O228        C241   1.267       .  A
O228       Al238   1.930   1_556  S
Al229       O242   1.884       .  S
Al229       O239   1.902   1_556  S
Al229       O234   1.777       .  S
O230        C237   1.256       .  A
O230       Al238   1.877       .  S
O231        C240   1.256       .  A
O231       Al238   1.882   1_556  S
O232       Al238   1.930       .  S
O233        C240   1.268       .  A
O234       Al238   1.770   1_556  S
O235        C236   1.268       .  A
C236       C1857   1.486       .  S
C237       C1905   1.476       .  S
C240       C2708   1.487       .  S
C241        O242   1.260       .  A
C241       C1940   1.479       .  S
O243        C258   1.260       .  A
O243       Al251   1.891       .  S
C244        O254   1.264       .  A
C244        O245   1.265       .  A
C244       C1892   1.487       .  S
O245       Al247   1.912       .  S
O246        C248   1.258       .  A
O246       Al247   1.886       .  S
Al247       O255   1.894       .  S
Al247       O257   1.931       .  S
Al247       O256   1.775       .  S
C248        O261   1.266       .  A
C248       C1833   1.478       .  S
O249        C259   1.261       .  A
O249       Al251   1.895       .  S
O250        C263   1.264       .  A
O250       Al260   1.910       .  S
Al251       O264   1.924       .  S
Al251       O261   1.940       .  S
Al251       O256   1.783       .  S
O252        C259   1.266       .  A
O252       Al260   1.926       .  S
O253        C262   1.266       .  A
O253       Al260   1.928       .  S
O254       Al260   1.917       .  S
O255        C262   1.261       .  A
O256       Al260   1.783       .  S
O257        C258   1.265       .  A
C258       C1809   1.481       .  S
C259       C1977   1.482       .  S
C262       C2636   1.483       .  S
C263        O264   1.266       .  A
C263       C1868   1.489       .  S
O265        C280   1.271       .  A
O265       Al273   1.937       .  S
C266        O276   1.267       .  A
C266        O267   1.266       .  A
C266       C1700   1.481       .  S
O267       Al269   1.913   1_556  S
O268        C270   1.262       .  A
O268       Al269   1.912       .  S
Al269       O277   1.929       .  S
Al269       O279   1.895       .  S
Al269       O278   1.776       .  S
C270        O283   1.263       .  A
C270       C1737   1.485       .  S
O271        C281   1.271       .  A
O271       Al273   1.954   1_556  S
O272        C285   1.264       .  A
O272       Al282   1.928   1_554  S
Al273       O286   1.888       .  S
Al273       O283   1.917       .  S
Al273       O278   1.783       .  S
O274        C281   1.257       .  A
O274       Al282   1.874       .  S
O275        C284   1.262       .  A
O275       Al282   1.899   1_554  S
O276       Al282   1.924       .  S
O277        C284   1.265       .  A
O278       Al282   1.774   1_554  S
O279        C280   1.265       .  A
C280       C1724   1.486       .  S
C281       C1761   1.477       .  S
C284       C2324   1.483       .  S
C285        O286   1.257       .  A
C285       C1796   1.482       .  S
O287        C302   1.260       .  A
O287       Al295   1.883       .  S
C288        O298   1.264       .  A
C288        O289   1.266       .  A
C288       C1689   1.483       .  S
O289       Al291   1.921       .  S
O290        C292   1.258       .  A
O290       Al291   1.891       .  S
Al291       O299   1.885       .  S
Al291       O301   1.927       .  S
Al291       O300   1.777       .  S
C292        O305   1.264       .  A
C292       C1676   1.482       .  S
O293        C303   1.264       .  A
O293       Al295   1.904       .  S
O294        C307   1.265       .  A
O294       Al304   1.915       .  S
Al295       O308   1.919       .  S
Al295       O305   1.931       .  S
Al295       O300   1.780       .  S
O296        C303   1.269       .  A
O296       Al304   1.939       .  S
O297        C306   1.267       .  A
O297       Al304   1.946       .  S
O298       Al304   1.906       .  S
O299        C306   1.257       .  A
O300       Al304   1.781       .  S
O301        C302   1.266       .  A
C302       C1641   1.478       .  S
C303       C1617   1.490       .  S
C306       C2241   1.490       .  S
C307        O308   1.265       .  A
C307       C1713   1.482       .  S
O309        C324   1.269       .  A
O309       Al317   1.927       .  S
C310        O320   1.268       .  A
C310        O311   1.264       .  A
C310       C1545   1.483       .  S
O311       Al313   1.903   1_554  S
O312        C314   1.268   1_556  A
O312       Al313   1.934       .  S
Al313       O321   1.947       .  S
Al313       O323   1.911       .  S
Al313       O322   1.775   1_556  S
C314        O327   1.265       .  A
C314       C1748   1.490       .  S
O315        C325   1.266       .  A
O315       Al317   1.947   1_554  S
O316        C329   1.268       .  A
O316       Al326   1.939   1_556  S
Al317       O330   1.878       .  S
Al317       O327   1.911   1_556  S
Al317       O322   1.777   1_556  S
O318        C325   1.255       .  A
O318       Al326   1.880       .  S
O319        C328   1.259       .  A
O319       Al326   1.889   1_556  S
O320       Al326   1.926       .  S
O321        C328   1.267       .  A
O322       Al326   1.770       .  S
O323        C324   1.267       .  A
C324       C1521   1.484       .  S
C325       C1580   1.474       .  S
C328       C2049   1.488       .  S
C329        O330   1.259       .  A
C329       C1604   1.479       .  S
O331        C346   1.260       .  A
O331       Al339   1.901       .  S
C332        O342   1.264       .  A
C332        O333   1.264       .  A
C332       C1556   1.478       .  S
O333       Al335   1.910       .  S
O334        C336   1.260       .  A
O334       Al335   1.891       .  S
Al335       O343   1.894       .  S
Al335       O345   1.906       .  S
Al335       O344   1.779       .  S
C336        O349   1.269       .  A
C336       C1508   1.492       .  S
O337        C347   1.267       .  A
O337       Al339   1.925       .  S
O338        C351   1.264       .  A
O338       Al348   1.905       .  S
Al339       O352   1.924       .  S
Al339       O349   1.951       .  S
Al339       O344   1.789       .  S
O340        C347   1.263       .  A
O340       Al348   1.906       .  S
O341        C350   1.263       .  A
O341       Al348   1.925       .  S
O342       Al348   1.915       .  S
O343        C350   1.258       .  A
O344       Al348   1.783       .  S
O345        C346   1.261       .  A
C346       C1484   1.480       .  S
C347       C1628   1.488       .  S
C350       C1964   1.483       .  S
C351        O352   1.267       .  A
C351       C1532   1.483       .  S
O353        C368   1.261       .  A
O353       Al361   1.891       .  S
C354        O364   1.266       .  A
C354        O355   1.264       .  A
C354       C1412   1.480       .  S
O355       Al357   1.910       .  S
O356        C358   1.260       .  A
O356       Al357   1.896       .  S
Al357       O365   1.901       .  S
Al357       O367   1.915       .  S
Al357       O366   1.778       .  S
C358        O371   1.265       .  A
C358       C1844   1.483       .  S
O359        C369   1.261       .  A
O359       Al361   1.900       .  S
O360        C373   1.265       .  A
O360       Al370   1.913       .  S
Al361       O374   1.930       .  S
Al361       O371   1.931       .  S
Al361       O366   1.782       .  S
O362        C369   1.264       .  A
O362       Al370   1.921       .  S
O363        C372   1.264       .  A
O363       Al370   1.922       .  S
O364       Al370   1.919       .  S
O365        C372   1.261       .  A
O366       Al370   1.782       .  S
O367        C368   1.263       .  A
C368       C1916   1.478       .  S
C369       C1449   1.482       .  S
C372       C1377   1.484       .  S
C373        O374   1.268       .  A
C373       C1425   1.486       .  S
O375        C390   1.269       .  A
O375       Al383   1.932       .  S
C376        O386   1.266       .  A
C376        O377   1.264       .  A
C376       C1401   1.483       .  S
O377       Al379   1.908       .  S
O378        C380   1.268       .  A
O378       Al379   1.934       .  S
Al379       O387   1.951       .  S
Al379       O389   1.907       .  S
Al379       O388   1.776       .  S
C380        O393   1.264       .  A
C380       C1353   1.488       .  S
O381        C391   1.268       .  A
O381       Al383   1.950       .  S
O382        C395   1.265       .  A
O382       Al392   1.925       .  S
Al383       O396   1.889       .  S
Al383       O393   1.904       .  S
Al383       O388   1.779       .  S
O384        C391   1.256       .  A
O384       Al392   1.875       .  S
O385        C394   1.257       .  A
O385       Al392   1.876       .  S
O386       Al392   1.921       .  S
O387        C394   1.268       .  A
O388       Al392   1.767       .  S
O389        C390   1.265       .  A
C390       C1436   1.488       .  S
C391       C1820   1.475       .  S
C394       C1329   1.482       .  S
C395        O396   1.260       .  A
C395       C1929   1.477       .  S
O397        C412   1.258       .  A
O397       Al405   1.882       .  S
C398        O408   1.265       .  A
C398        O399   1.268       .  A
C398       C1305   1.486       .  S
O399       Al401   1.931       .  S
O400        C402   1.261       .  A
O400       Al401   1.893       .  S
Al401       O409   1.903       .  S
Al401       O411   1.936       .  S
Al401       O410   1.776       .  S
C402        O415   1.269       .  A
C402       C2481   1.482       .  S
O403        C413   1.263       .  A
O403       Al405   1.904       .  S
O404        C417   1.262       .  A
O404       Al414   1.893       .  S
Al405       O418   1.936       .  S
Al405       O415   1.944       .  S
Al405       O410   1.781       .  S
O406        C413   1.264       .  A
O406       Al414   1.915       .  S
O407        C416   1.264       .  A
O407       Al414   1.920       .  S
O408       Al414   1.907       .  S
O409        C416   1.262       .  A
O410       Al414   1.776       .  S
O411        C412   1.266       .  A
C412       C2385   1.477       .  S
C413       C1460   1.483       .  S
C416       C1257   1.483       .  S
C417        O418   1.268       .  A
C417       C1292   1.486       .  S
O419        C434   1.258       .  A
O419       Al427   1.873       .  S
C420        O430   1.265       .  A
C420        O421   1.269       .  A
C420       C1281   1.484       .  S
O421       Al423   1.933       .  S
O422        C424   1.255       .  A
O422       Al423   1.876       .  S
Al423       O431   1.889       .  S
Al423       O433   1.929       .  S
Al423       O432   1.772       .  S
C424        O437   1.267       .  A
C424       C2420   1.482       .  S
O425        C435   1.264       .  A
O425       Al427   1.910       .  S
O426        C439   1.268       .  A
O426       Al436   1.914       .  S
Al427       O440   1.933       .  S
Al427       O437   1.947       .  S
Al427       O432   1.779       .  S
O428        C435   1.265       .  A
O428       Al436   1.922       .  S
O429        C438   1.264       .  A
O429       Al436   1.935       .  S
O430       Al436   1.897       .  S
O431        C438   1.257       .  A
O432       Al436   1.777       .  S
O433        C434   1.266       .  A
C434       C2468   1.474       .  S
C435       C1364   1.485       .  S
C438       C1233   1.482       .  S
C439        O440   1.270       .  A
C439       C1316   1.485       .  S
O441        C456   1.259       .  A
O441       Al449   1.890       .  S
C442        O452   1.266       .  A
C442        O443   1.265       .  A
C442       C1185   1.480       .  S
O443       Al445   1.908       .  S
O444        C446   1.256       .  A
O444       Al445   1.879       .  S
Al445       O453   1.887       .  S
Al445       O455   1.924       .  S
Al445       O454   1.767       .  S
C446        O459   1.267       .  A
C446       C1785   1.475       .  S
O447        C457   1.266       .  A
O447       Al449   1.912       .  S
O448        C461   1.266       .  A
O448       Al458   1.909       .  S
Al449       O462   1.915       .  S
Al449       O459   1.945       .  S
Al449       O454   1.781       .  S
O450        C457   1.268       .  A
O450       Al458   1.929       .  S
O451        C460   1.267       .  A
O451       Al458   1.947       .  S
O452       Al458   1.913       .  S
O453        C460   1.259       .  A
O454       Al458   1.776       .  S
O455        C456   1.264       .  A
C456       C1652   1.475       .  S
C457       C1209   1.489       .  S
C460       C1137   1.486       .  S
C461        O462   1.266       .  A
C461       C1172   1.478       .  S
O463        C478   1.259       .  A
O463       Al471   1.886       .  S
C464        O474   1.260       .  A
C464        O465   1.267       .  A
C464       C1161   1.478       .  S
O465       Al467   1.930       .  S
O466        C468   1.260       .  A
O466       Al467   1.893       .  S
Al467       O475   1.901       .  S
Al467       O477   1.931       .  S
Al467       O476   1.781       .  S
C468        O481   1.266       .  A
C468       C1665   1.481       .  S
O469        C479   1.262       .  A
O469       Al471   1.904       .  S
O470        C483   1.262       .  A
O470       Al480   1.891       .  S
Al471       O484   1.922       .  S
Al471       O481   1.930       .  S
Al471       O476   1.781       .  S
O472        C479   1.263       .  A
O472       Al480   1.913       .  S
O473        C482   1.265       .  A
O473       Al480   1.927       .  S
O474       Al480   1.886       .  S
O475        C482   1.261       .  A
O476       Al480   1.781       .  S
O477        C478   1.266       .  A
C478       C1772   1.483       .  S
C479       C1113   1.481       .  S
C482       C1100   1.487       .  S
C483        O484   1.267       .  A
C483       C1196   1.478       .  S
O485        C500   1.261       .  A
O485       Al493   1.890       .  S
C486        O496   1.266       .  A
C486        O487   1.265       .  A
C486       C1052   1.488       .  S
O487       Al489   1.918       .  S
O488        C490   1.256       .  A
O488       Al489   1.882       .  S
Al489       O497   1.885       .  S
Al489       O499   1.930       .  S
Al489       O498   1.775       .  S
C490        O503   1.265       .  A
C490       C2804   1.474       .  S
O491        C501   1.266       .  A
O491       Al493   1.914       .  S
O492        C505   1.267       .  A
O492       Al502   1.918       .  S
Al493       O506   1.919       .  S
Al493       O503   1.940       .  S
Al493       O498   1.781       .  S
O494        C501   1.267       .  A
O494       Al502   1.925       .  S
O495        C504   1.266       .  A
O495       Al502   1.938       .  S
O496       Al502   1.916       .  S
O497        C504   1.258       .  A
O498       Al502   1.778       .  S
O499        C500   1.266       .  A
C500       C2865   1.479       .  S
C501       C1220   1.490       .  S
C504       C1268   1.485       .  S
C505        O506   1.266       .  A
C505       C1076   1.487       .  S
O507        C522   1.260       .  A
O507       Al515   1.891       .  S
C508        O518   1.267       .  A
C508        O509   1.265       .  A
C508       C1065   1.486       .  S
O509       Al511   1.912       .  S
O510        C512   1.260       .  A
O510       Al511   1.894       .  S
Al511       O519   1.897       .  S
Al511       O521   1.918       .  S
Al511       O520   1.779       .  S
C512        O525   1.264       .  A
C512       C2889   1.479       .  S
O513        C523   1.261       .  A
O513       Al515   1.903       .  S
O514        C527   1.266       .  A
O514       Al524   1.916       .  S
Al515       O528   1.917       .  S
Al515       O525   1.922       .  S
Al515       O520   1.782       .  S
O516        C523   1.264       .  A
O516       Al524   1.915       .  S
O517        C526   1.263       .  A
O517       Al524   1.921       .  S
O518       Al524   1.920       .  S
O519        C526   1.260       .  A
O520       Al524   1.785       .  S
O521        C522   1.263       .  A
C522       C2780   1.480       .  S
C523       C1124   1.483       .  S
C526       C1244   1.483       .  S
C527        O528   1.266       .  A
C527       C1041   1.487       .  S
O529        C544   1.259       .  A
O529       Al537   1.884       .  S
C530        O540   1.266       .  A
C530        O531   1.267       .  A
C530        C993   1.490       .  S
O531       Al533   1.923       .  S
O532        C534   1.257       .  A
O532       Al533   1.884       .  S
Al533       O541   1.900       .  S
Al533       O543   1.934       .  S
Al533       O542   1.775       .  S
C534        O547   1.266       .  A
C534       C2180   1.477       .  S
O535        C545   1.262       .  A
O535       Al537   1.900       .  S
O536        C549   1.266       .  A
O536       Al546   1.915       .  S
Al537       O550   1.925       .  S
Al537       O547   1.940       .  S
Al537       O542   1.782       .  S
O538        C545   1.266       .  A
O538       Al546   1.928       .  S
O539        C548   1.266       .  A
O539       Al546   1.932       .  S
O540       Al546   1.918       .  S
O541        C548   1.261       .  A
O542       Al546   1.779       .  S
O543        C544   1.267       .  A
C544       C2001   1.479       .  S
C545       C1017   1.485       .  S
C548        C945   1.488       .  S
C549        O550   1.267       .  A
C549        C969   1.485       .  S
O551        C566   1.259       .  A
O551       Al559   1.891       .  S
C552        O562   1.267       .  A
C552        O553   1.267       .  A
C552        C980   1.487       .  S
O553       Al555   1.922       .  S
O554        C556   1.256       .  A
O554       Al555   1.876       .  S
Al555       O563   1.886       .  S
Al555       O565   1.917       .  S
Al555       O564   1.773       .  S
C556        O569   1.268       .  A
C556       C2036   1.475       .  S
O557        C567   1.263       .  A
O557       Al559   1.919       .  S
O558        C571   1.268       .  A
O558       Al568   1.910       .  S
Al559       O572   1.932       .  S
Al559       O569   1.943       .  S
Al559       O564   1.785       .  S
O560        C567   1.261       .  A
O560       Al568   1.908       .  S
O561        C570   1.264       .  A
O561       Al568   1.936       .  S
O562       Al568   1.919       .  S
O563        C570   1.257       .  A
O564       Al568   1.782       .  S
O565        C566   1.262       .  A
C566       C2156   1.480       .  S
C567        C932   1.486       .  S
C570        C897   1.480       .  S
C571        O572   1.271       .  A
C571       C1004   1.490       .  S
O573        C588   1.258       .  A
O573       Al581   1.877       .  S
C574        O584   1.266       .  A
C574        O575   1.268       .  A
C574        C860   1.477       .  S
O575       Al577   1.920       .  S
O576        C578   1.258       .  A
O576       Al577   1.891       .  S
Al577       O585   1.898       .  S
Al577       O587   1.923       .  S
Al577       O586   1.780       .  S
C578        O591   1.265       .  A
C578       C2217   1.486       .  S
O579        C589   1.263       .  A
O579       Al581   1.911       .  S
O580        C593   1.267       .  A
O580       Al590   1.910       .  S
Al581       O594   1.925       .  S
Al581       O591   1.933       .  S
Al581       O586   1.785       .  S
O582        C589   1.262       .  A
O582       Al590   1.914       .  S
O583        C592   1.261       .  A
O583       Al590   1.925       .  S
O584       Al590   1.911       .  S
O585        C592   1.258       .  A
O586       Al590   1.783       .  S
O587        C588   1.264       .  A
C588       C2276   1.479       .  S
C589       C1028   1.486       .  S
C592       C1148   1.486       .  S
C593        O594   1.268       .  A
C593        C884   1.482       .  S
O595        C610   1.269       .  A
O595       Al603   1.933       .  S
C596        O606   1.267       .  A
C596        O597   1.261       .  A
C596        C849   1.483       .  S
O597       Al599   1.897       .  S
O598        C600   1.268       .  A
O598       Al599   1.938       .  S
Al599       O607   1.955       .  S
Al599       O609   1.901       .  S
Al599       O608   1.777       .  S
C600        O613   1.262       .  A
C600        C921   1.487       .  S
O601        C611   1.268       .  A
O601       Al603   1.948       .  S
O602        C615   1.268       .  A
O602       Al612   1.939       .  S
Al603       O616   1.887       .  S
Al603       O613   1.896       .  S
Al603       O608   1.777       .  S
O604        C611   1.256       .  A
O604       Al612   1.875       .  S
O605        C614   1.259       .  A
O605       Al612   1.882       .  S
O606       Al612   1.930       .  S
O607        C614   1.270       .  A
O608       Al612   1.770       .  S
O609        C610   1.265       .  A
C610        C873   1.485       .  S
C611       C2204   1.473       .  S
C614       C1089   1.488       .  S
C615        O616   1.260       .  A
C615       C2300   1.483       .  S
O617        C632   1.258       .  A
O617       Al625   1.892       .  S
C618        O628   1.264       .  A
C618        O619   1.266       .  A
C618        C777   1.482       .  S
O619       Al621   1.918       .  S
O620        C622   1.259       .  A
O620       Al621   1.884       .  S
Al621       O629   1.905       .  S
Al621       O631   1.921       .  S
Al621       O630   1.781       .  S
C622        O635   1.271       .  A
C622       C1497   1.488       .  S
O623        C633   1.265       .  A
O623       Al625   1.923       .  S
O624        C637   1.265       .  A
O624       Al634   1.896       .  S
Al625       O638   1.930       .  S
Al625       O635   1.956       .  S
Al625       O630   1.785       .  S
O626        C633   1.262       .  A
O626       Al634   1.910       .  S
O627        C636   1.265       .  A
O627       Al634   1.930       .  S
O628       Al634   1.906       .  S
O629        C636   1.261       .  A
O630       Al634   1.781       .  S
O631        C632   1.263       .  A
C632       C1569   1.479       .  S
C633        C825   1.490       .  S
C636        C956   1.489       .  S
C637        O638   1.269       .  A
C637        C801   1.483       .  S
O639        C654   1.260       .  A
O639       Al647   1.886       .  S
C640        O650   1.262       .  A
C640        O641   1.266       .  A
C640        C812   1.479       .  S
O641       Al643   1.927       .  S
O642        C644   1.257       .  A
O642       Al643   1.877       .  S
Al643       O651   1.886       .  S
Al643       O653   1.928       .  S
Al643       O652   1.773       .  S
C644        O657   1.267       .  A
C644       C1593   1.477       .  S
O645        C655   1.262       .  A
O645       Al647   1.909       .  S
O646        C659   1.264       .  A
O646       Al656   1.894       .  S
Al647       O660   1.928       .  S
Al647       O657   1.936       .  S
Al647       O652   1.779       .  S
O648        C655   1.263       .  A
O648       Al656   1.909       .  S
O649        C658   1.265       .  A
O649       Al656   1.933       .  S
O650       Al656   1.900       .  S
O651        C658   1.259       .  A
O652       Al656   1.776       .  S
O653        C654   1.265       .  A
C654       C1473   1.479       .  S
C655        C764   1.482       .  S
C658        C908   1.481       .  S
C659        O660   1.269       .  A
C659        C788   1.480       .  S
O661        C676   1.259       .  A
O661       Al669   1.885       .  S
C662        O672   1.267       .  A
C662        O663   1.266       .  A
C662        C729   1.477       .  S
O663       Al665   1.921       .  S
O664        C666   1.256       .  A
O664       Al665   1.876       .  S
Al665       O673   1.881       .  S
Al665       O675   1.923       .  S
Al665       O674   1.771       .  S
C666        O679   1.266       .  A
C666       C2673   1.472       .  S
O667        C677   1.263       .  A
O667       Al669   1.907       .  S
O668        C681   1.269       .  A
O668       Al678   1.920       .  S
Al669       O682   1.923       .  S
Al669       O679   1.936       .  S
Al669       O674   1.776       .  S
O670        C677   1.267       .  A
O670       Al678   1.936       .  S
O671        C680   1.269       .  A
O671       Al678   1.953       .  S
O672       Al678   1.918       .  S
O673        C680   1.257       .  A
O674       Al678   1.777       .  S
O675        C676   1.264       .  A
C676       C2577   1.477       .  S
C677        C836   1.491       .  S
C680       C1388   1.485       .  S
C681        O682   1.269       .  A
C681        C705   1.487       .  S
O683        C698   1.266       .  A
O683       Al691   1.922       .  S
C684        O694   1.265       .  A
C684        O685   1.264       .  A
C684        C740   1.485       .  S
O685       Al687   1.908       .  S
O686        C688   1.262       .  A
O686       Al687   1.908       .  S
Al687       O695   1.909       .  S
Al687       O697   1.906       .  S
Al687       O696   1.782       .  S
C688        O701   1.260       .  A
C688        C753   1.478       .  S
O689        C699   1.264       .  A
O689       Al691   1.923       .  S
O690        C703   1.265       .  A
O690       Al700   1.925       .  S
Al691       O704   1.890       .  S
Al691       O701   1.900       .  S
Al691       O696   1.787       .  S
O692        C699   1.260       .  A
O692       Al700   1.895       .  S
O693        C702   1.263       .  A
O693       Al700   1.909       .  S
O694       Al700   1.918       .  S
O695        C702   1.262       .  A
O696       Al700   1.784       .  S
O697        C698   1.264       .  A
C698        C716   1.487       .  S
C699       C2660   1.480       .  S
C702       C1340   1.483       .  S
C703        O704   1.259       .  A
C703       C2612   1.482       .  S
C705        C706   1.406       .  A
C705        C710   1.406       .  A
C706        C707   1.396       .  A
C706        H719   1.083       .  S
C707        C708   1.403       .  A
C707        H720   1.083       .  S
C708        C709   1.412       .  A
C708        C711   1.495       .  S
C709        C710   1.406       .  A
C709        H721   1.080       .  S
C710        H722   1.083       .  S
C711        C712   1.350       .  D
C711        H723   1.085       .  S
C712        C713   1.495       .  S
C712        H724   1.083       .  S
C713        C714   1.406       .  A
C713        C718   1.409       .  A
C714        C715   1.403       .  A
C714        H725   1.083       .  S
C715        C716   1.406       .  A
C715        H726   1.083       .  S
C716        C717   1.406       .  A
C717        C718   1.399       .  A
C717        H727   1.083       .  S
C718        H728   1.081       .  S
C729        C730   1.403       .  A
C729        C734   1.404       .  A
C730        C731   1.396       .  A
C730        H743   1.083       .  S
C731        C732   1.405       .  A
C731        H744   1.084       .  S
C732        C733   1.412       .  A
C732        C735   1.494       .  S
C733        C734   1.404       .  A
C733        H745   1.080       .  S
C734        H746   1.083       .  S
C735        C736   1.349       .  D
C735        H747   1.086       .  S
C736        C737   1.492   1_554  S
C736        H748   1.083       .  S
C737        C738   1.405       .  A
C737        C742   1.408       .  A
C738        C739   1.403       .  A
C738        H749   1.083       .  S
C739        C740   1.406       .  A
C739        H750   1.083       .  S
C740        C741   1.406       .  A
C741        C742   1.397       .  A
C741        H751   1.083       .  S
C742        H752   1.081       .  S
C753        C754   1.403       .  A
C753        C758   1.406       .  A
C754        C755   1.392       .  A
C754        H767   1.083       .  S
C755        C756   1.403       .  A
C755        H768   1.084       .  S
C756        C757   1.409       .  A
C756        C759   1.487       .  S
C757        C758   1.404       .  A
C757        H769   1.081       .  S
C758        H770   1.083       .  S
C759        C760   1.348   1_545  D
C759        H771   1.086       .  S
C760        C761   1.488       .  S
C760        H772   1.084   1_565  S
C761        C762   1.405       .  A
C761        C766   1.406       .  A
C762        C763   1.405       .  A
C762        H773   1.083       .  S
C763        C764   1.407       .  A
C763        H774   1.083       .  S
C764        C765   1.405       .  A
C765        C766   1.391       .  A
C765        H775   1.083       .  S
C766        H776   1.082       .  S
C777        C778   1.406       .  A
C777        C782   1.407       .  A
C778        C779   1.393       .  A
C778        H791   1.083       .  S
C779        C780   1.401       .  A
C779        H792   1.083       .  S
C780        C781   1.408       .  A
C780        C783   1.484       .  S
C781        C782   1.403       .  A
C781        H793   1.082       .  S
C782        H794   1.083       .  S
C783        C784   1.345       .  D
C783        H795   1.087       .  S
C784        C785   1.484       .  S
C784        H796   1.085       .  S
C785        C786   1.402       .  A
C785        C790   1.406       .  A
C786        C787   1.401       .  A
C786        H797   1.083       .  S
C787        C788   1.407       .  A
C787        H798   1.083       .  S
C788        C789   1.405       .  A
C789        C790   1.396       .  A
C789        H799   1.083       .  S
C790        H800   1.083       .  S
C801        C802   1.406       .  A
C801        C806   1.406       .  A
C802        C803   1.400       .  A
C802        H815   1.083       .  S
C803        C804   1.404       .  A
C803        H816   1.083       .  S
C804        C805   1.408       .  A
C804        C807   1.488       .  S
C805        C806   1.398       .  A
C805        H817   1.081       .  S
C806        H818   1.083       .  S
C807        C808   1.348   1_554  D
C807        H819   1.085       .  S
C808        C809   1.488       .  S
C808        H820   1.085   1_556  S
C809        C810   1.405       .  A
C809        C814   1.408       .  A
C810        C811   1.400       .  A
C810        H821   1.083       .  S
C811        C812   1.405       .  A
C811        H822   1.083       .  S
C812        C813   1.404       .  A
C813        C814   1.397       .  A
C813        H823   1.083       .  S
C814        H824   1.081       .  S
C825        C826   1.406       .  A
C825        C830   1.408       .  A
C826        C827   1.398       .  A
C826        H839   1.083       .  S
C827        C828   1.404       .  A
C827        H840   1.083       .  S
C828        C829   1.411       .  A
C828        C831   1.497       .  S
C829        C830   1.409       .  A
C829        H841   1.081       .  S
C830        H842   1.083       .  S
C831        C832   1.352   1_565  D
C831        H843   1.084   1_565  S
C832        C833   1.500       .  S
C832        H844   1.084       .  S
C833        C834   1.406       .  A
C833        C838   1.410       .  A
C834        C835   1.404       .  A
C834        H845   1.083       .  S
C835        C836   1.407       .  A
C835        H846   1.083       .  S
C836        C837   1.407       .  A
C837        C838   1.402       .  A
C837        H847   1.083       .  S
C838        H848   1.081       .  S
C849        C850   1.407       .  A
C849        C854   1.404       .  A
C850        C851   1.402       .  A
C850        H863   1.083       .  S
C851        C852   1.404       .  A
C851        H864   1.083       .  S
C852        C853   1.408       .  A
C852        C855   1.489       .  S
C853        C854   1.397       .  A
C853        H865   1.082       .  S
C854        H866   1.083       .  S
C855        C856   1.348       .  D
C855        H867   1.083       .  S
C856        C857   1.491       .  S
C856        H868   1.086       .  S
C857        C858   1.403       .  A
C857        C862   1.412       .  A
C858        C859   1.394       .  A
C858        H869   1.083       .  S
C859        C860   1.402       .  A
C859        H870   1.083       .  S
C860        C861   1.405       .  A
C861        C862   1.405       .  A
C861        H871   1.083       .  S
C862        H872   1.080       .  S
C873        C874   1.406       .  A
C873        C878   1.406       .  A
C874        C875   1.401       .  A
C874        H887   1.083       .  S
C875        C876   1.405       .  A
C875        H888   1.083       .  S
C876        C877   1.409       .  A
C876        C879   1.492       .  S
C877        C878   1.399       .  A
C877        H889   1.081       .  S
C878        H890   1.083       .  S
C879        C880   1.349   1_556  D
C879        H891   1.084       .  S
C880        C881   1.491       .  S
C880        H892   1.085   1_554  S
C881        C882   1.404       .  A
C881        C886   1.410       .  A
C882        C883   1.396       .  A
C882        H893   1.084       .  S
C883        C884   1.405       .  A
C883        H894   1.083       .  S
C884        C885   1.405       .  A
C885        C886   1.403       .  A
C885        H895   1.083       .  S
C886        H896   1.081       .  S
C897        C898   1.403       .  A
C897        C902   1.405       .  A
C898        C899   1.394       .  A
C898        H911   1.083       .  S
C899        C900   1.404       .  A
C899        H912   1.084       .  S
C900        C901   1.410       .  A
C900        C903   1.490       .  S
C901        C902   1.402       .  A
C901        H913   1.080       .  S
C902        H914   1.083       .  S
C903        C904   1.348       .  D
C903        H915   1.086       .  S
C904        C905   1.487       .  S
C904        H916   1.083       .  S
C905        C906   1.404       .  A
C905        C910   1.407       .  A
C906        C907   1.401       .  A
C906        H917   1.084       .  S
C907        C908   1.406       .  A
C907        H918   1.083       .  S
C908        C909   1.405       .  A
C909        C910   1.395       .  A
C909        H919   1.083       .  S
C910        H920   1.082       .  S
C921        C922   1.406       .  A
C921        C926   1.405       .  A
C922        C923   1.401       .  A
C922        H935   1.083       .  S
C923        C924   1.405       .  A
C923        H936   1.083       .  S
C924        C925   1.410       .  A
C924        C927   1.496       .  S
C925        C926   1.402       .  A
C925        H937   1.081       .  S
C926        H938   1.083       .  S
C927        C928   1.350   1_455  D
C927        H939   1.084   1_455  S
C928        C929   1.496       .  S
C928        H940   1.085       .  S
C929        C930   1.404       .  A
C929        C934   1.412       .  A
C930        C931   1.397       .  A
C930        H941   1.083       .  S
C931        C932   1.405       .  A
C931        H942   1.083       .  S
C932        C933   1.406       .  A
C933        C934   1.407       .  A
C933        H943   1.083       .  S
C934        H944   1.081       .  S
C945        C946   1.406       .  A
C945        C950   1.406       .  A
C946        C947   1.401       .  A
C946        H959   1.083       .  S
C947        C948   1.406       .  A
C947        H960   1.083       .  S
C948        C949   1.410       .  A
C948        C951   1.496       .  S
C949        C950   1.402       .  A
C949        H961   1.081       .  S
C950        H962   1.083       .  S
C951        C952   1.352       .  D
C951        H963   1.084       .  S
C952        C953   1.496       .  S
C952        H964   1.084       .  S
C953        C954   1.405       .  A
C953        C958   1.410       .  A
C954        C955   1.400       .  A
C954        H965   1.083       .  S
C955        C956   1.406       .  A
C955        H966   1.083       .  S
C956        C957   1.407       .  A
C957        C958   1.404       .  A
C957        H967   1.083       .  S
C958        H968   1.081       .  S
C969        C970   1.406       .  A
C969        C974   1.406       .  A
C970        C971   1.398       .  A
C970        H983   1.083       .  S
C971        C972   1.404       .  A
C971        H984   1.083       .  S
C972        C973   1.411       .  A
C972        C975   1.495       .  S
C973        C974   1.405       .  A
C973        H985   1.081       .  S
C974        H986   1.083       .  S
C975        C976   1.349       .  D
C975        H987   1.086       .  S
C976        C977   1.492       .  S
C976        H988   1.085       .  S
C977        C978   1.402       .  A
C977        C982   1.411       .  A
C978        C979   1.397       .  A
C978        H989   1.084       .  S
C979        C980   1.407       .  A
C979        H990   1.083       .  S
C980        C981   1.406       .  A
C981        C982   1.406       .  A
C981        H991   1.083       .  S
C982        H992   1.082       .  S
C993        C994   1.407       .  A
C993        C998   1.408       .  A
C994        C995   1.397       .  A
C994       H1007   1.083       .  S
C995        C996   1.403       .  A
C995       H1008   1.084       .  S
C996        C997   1.409       .  A
C996        C999   1.493   1_554  S
C997        C998   1.408       .  A
C997       H1009   1.082       .  S
C998       H1010   1.083       .  S
C999       C1000   1.350       .  D
C999       H1011   1.087       .  S
C1000      C1001   1.494       .  S
C1000      H1012   1.086       .  S
C1001      C1002   1.405       .  A
C1001      C1006   1.407       .  A
C1002      C1003   1.405       .  A
C1002      H1013   1.083       .  S
C1003      C1004   1.408       .  A
C1003      H1014   1.083       .  S
C1004      C1005   1.408       .  A
C1005      C1006   1.400       .  A
C1005      H1015   1.083       .  S
C1006      H1016   1.082       .  S
C1017      C1018   1.405       .  A
C1017      C1022   1.407       .  A
C1018      C1019   1.398       .  A
C1018      H1031   1.083       .  S
C1019      C1020   1.405       .  A
C1019      H1032   1.083       .  S
C1020      C1021   1.409       .  A
C1020      C1023   1.493       .  S
C1021      C1022   1.403       .  A
C1021      H1033   1.081       .  S
C1022      H1034   1.083       .  S
C1023      C1024   1.352       .  D
C1023      H1035   1.085       .  S
C1024      C1025   1.492   1_655  S
C1024      H1036   1.083       .  S
C1025      C1026   1.406       .  A
C1025      C1030   1.407       .  A
C1026      C1027   1.404       .  A
C1026      H1037   1.083       .  S
C1027      C1028   1.406       .  A
C1027      H1038   1.083       .  S
C1028      C1029   1.406       .  A
C1029      C1030   1.397       .  A
C1029      H1039   1.083       .  S
C1030      H1040   1.082       .  S
C1041      C1042   1.406       .  A
C1041      C1046   1.408       .  A
C1042      C1043   1.395       .  A
C1042      H1055   1.083       .  S
C1043      C1044   1.401       .  A
C1043      H1056   1.083       .  S
C1044      C1045   1.408       .  A
C1044      C1047   1.486       .  S
C1045      C1046   1.407       .  A
C1045      H1057   1.083       .  S
C1046      H1058   1.083       .  S
C1047      C1048   1.347       .  D
C1047      H1059   1.087       .  S
C1048      C1049   1.488       .  S
C1048      H1060   1.086       .  S
C1049      C1050   1.404       .  A
C1049      C1054   1.404       .  A
C1050      C1051   1.405       .  A
C1050      H1061   1.083       .  S
C1051      C1052   1.408       .  A
C1051      H1062   1.083       .  S
C1052      C1053   1.408       .  A
C1053      C1054   1.397       .  A
C1053      H1063   1.083       .  S
C1054      H1064   1.083       .  S
C1065      C1066   1.407       .  A
C1065      C1070   1.407       .  A
C1066      C1067   1.394       .  A
C1066      H1079   1.083       .  S
C1067      C1068   1.400       .  A
C1067      H1080   1.084       .  S
C1068      C1069   1.408       .  A
C1068      C1071   1.485   1_556  S
C1069      C1070   1.408       .  A
C1069      H1081   1.083       .  S
C1070      H1082   1.083       .  S
C1071      C1072   1.347       .  D
C1071      H1083   1.087       .  S
C1072      C1073   1.489       .  S
C1072      H1084   1.086       .  S
C1073      C1074   1.405       .  A
C1073      C1078   1.405       .  A
C1074      C1075   1.405       .  A
C1074      H1085   1.083       .  S
C1075      C1076   1.406       .  A
C1075      H1086   1.083       .  S
C1076      C1077   1.408       .  A
C1077      C1078   1.397       .  A
C1077      H1087   1.083       .  S
C1078      H1088   1.083       .  S
C1089      C1090   1.406       .  A
C1089      C1094   1.406       .  A
C1090      C1091   1.396       .  A
C1090      H1103   1.083       .  S
C1091      C1092   1.403       .  A
C1091      H1104   1.083       .  S
C1092      C1093   1.412       .  A
C1092      C1095   1.496       .  S
C1093      C1094   1.406       .  A
C1093      H1105   1.080       .  S
C1094      H1106   1.083       .  S
C1095      C1096   1.350       .  D
C1095      H1107   1.083       .  S
C1096      C1097   1.497       .  S
C1096      H1108   1.083       .  S
C1097      C1098   1.405       .  A
C1097      C1102   1.411       .  A
C1098      C1099   1.400       .  A
C1098      H1109   1.083       .  S
C1099      C1100   1.406       .  A
C1099      H1110   1.083       .  S
C1100      C1101   1.406       .  A
C1101      C1102   1.402       .  A
C1101      H1111   1.083       .  S
C1102      H1112   1.080       .  S
C1113      C1114   1.404       .  A
C1113      C1118   1.406       .  A
C1114      C1115   1.395       .  A
C1114      H1127   1.083       .  S
C1115      C1116   1.404       .  A
C1115      H1128   1.083       .  S
C1116      C1117   1.410       .  A
C1116      C1119   1.490   1_565  S
C1117      C1118   1.404       .  A
C1117      H1129   1.081       .  S
C1118      H1130   1.083       .  S
C1119      C1120   1.350       .  D
C1119      H1131   1.086       .  S
C1120      C1121   1.490       .  S
C1120      H1132   1.084       .  S
C1121      C1122   1.405       .  A
C1121      C1126   1.407       .  A
C1122      C1123   1.403       .  A
C1122      H1133   1.083       .  S
C1123      C1124   1.407       .  A
C1123      H1134   1.083       .  S
C1124      C1125   1.405       .  A
C1125      C1126   1.395       .  A
C1125      H1135   1.083       .  S
C1126      H1136   1.082       .  S
C1137      C1138   1.405       .  A
C1137      C1142   1.407       .  A
C1138      C1139   1.396       .  A
C1138      H1151   1.083       .  S
C1139      C1140   1.404       .  A
C1139      H1152   1.083       .  S
C1140      C1141   1.410       .  A
C1140      C1143   1.493       .  S
C1141      C1142   1.406       .  A
C1141      H1153   1.081       .  S
C1142      H1154   1.083       .  S
C1143      C1144   1.351       .  D
C1143      H1155   1.085       .  S
C1144      C1145   1.494       .  S
C1144      H1156   1.084       .  S
C1145      C1146   1.405       .  A
C1145      C1150   1.409       .  A
C1146      C1147   1.403       .  A
C1146      H1157   1.083       .  S
C1147      C1148   1.407       .  A
C1147      H1158   1.083       .  S
C1148      C1149   1.405       .  A
C1149      C1150   1.399       .  A
C1149      H1159   1.083       .  S
C1150      H1160   1.082       .  S
C1161      C1162   1.406       .  A
C1161      C1166   1.404       .  A
C1162      C1163   1.397       .  A
C1162      H1175   1.083       .  S
C1163      C1164   1.402       .  A
C1163      H1176   1.083       .  S
C1164      C1165   1.407       .  A
C1164      C1167   1.483       .  S
C1165      C1166   1.398       .  A
C1165      H1177   1.082       .  S
C1166      H1178   1.083       .  S
C1167      C1168   1.346       .  D
C1167      H1179   1.086       .  S
C1168      C1169   1.485       .  S
C1168      H1180   1.086       .  S
C1169      C1170   1.405       .  A
C1169      C1174   1.406       .  A
C1170      C1171   1.401       .  A
C1170      H1181   1.083       .  S
C1171      C1172   1.405       .  A
C1171      H1182   1.083       .  S
C1172      C1173   1.405       .  A
C1173      C1174   1.394       .  A
C1173      H1183   1.083       .  S
C1174      H1184   1.082       .  S
C1185      C1186   1.406       .  A
C1185      C1190   1.407       .  A
C1186      C1187   1.389       .  A
C1186      H1199   1.083       .  S
C1187      C1188   1.398       .  A
C1187      H1200   1.084       .  S
C1188      C1189   1.407       .  A
C1188      C1191   1.476       .  S
C1189      C1190   1.405       .  A
C1189      H1201   1.083       .  S
C1190      H1202   1.083       .  S
C1191      C1192   1.342   1_554  D
C1191      H1203   1.088   1_554  S
C1192      C1193   1.481       .  S
C1192      H1204   1.086       .  S
C1193      C1194   1.402       .  A
C1193      C1198   1.405       .  A
C1194      C1195   1.401       .  A
C1194      H1205   1.083       .  S
C1195      C1196   1.407       .  A
C1195      H1206   1.083       .  S
C1196      C1197   1.404       .  A
C1197      C1198   1.394       .  A
C1197      H1207   1.083       .  S
C1198      H1208   1.083       .  S
C1209      C1210   1.405       .  A
C1209      C1214   1.408       .  A
C1210      C1211   1.398       .  A
C1210      H1223   1.083       .  S
C1211      C1212   1.405       .  A
C1211      H1224   1.084       .  S
C1212      C1213   1.411       .  A
C1212      C1215   1.497   1_565  S
C1213      C1214   1.408       .  A
C1213      H1225   1.080       .  S
C1214      H1226   1.083       .  S
C1215      C1216   1.353       .  D
C1215      H1227   1.085       .  S
C1216      C1217   1.497       .  S
C1216      H1228   1.084       .  S
C1217      C1218   1.407       .  A
C1217      C1222   1.408       .  A
C1218      C1219   1.405       .  A
C1218      H1229   1.083       .  S
C1219      C1220   1.407       .  A
C1219      H1230   1.083       .  S
C1220      C1221   1.407       .  A
C1221      C1222   1.400       .  A
C1221      H1231   1.083       .  S
C1222      H1232   1.082       .  S
C1233      C1234   1.405       .  A
C1233      C1238   1.406       .  A
C1234      C1235   1.400       .  A
C1234      H1247   1.083       .  S
C1235      C1236   1.404       .  A
C1235      H1248   1.083       .  S
C1236      C1237   1.407       .  A
C1236      C1239   1.488       .  S
C1237      C1238   1.399       .  A
C1237      H1249   1.082       .  S
C1238      H1250   1.083       .  S
C1239      C1240   1.350       .  D
C1239      H1251   1.083       .  S
C1240      C1241   1.492       .  S
C1240      H1252   1.086       .  S
C1241      C1242   1.405       .  A
C1241      C1246   1.409       .  A
C1242      C1243   1.398       .  A
C1242      H1253   1.083       .  S
C1243      C1244   1.404       .  A
C1243      H1254   1.083       .  S
C1244      C1245   1.406       .  A
C1245      C1246   1.400       .  A
C1245      H1255   1.083       .  S
C1246      H1256   1.080       .  S
C1257      C1258   1.404       .  A
C1257      C1262   1.406       .  A
C1258      C1259   1.400       .  A
C1258      H1271   1.083       .  S
C1259      C1260   1.406       .  A
C1259      H1272   1.083       .  S
C1260      C1261   1.408       .  A
C1260      C1263   1.491       .  S
C1261      C1262   1.398       .  A
C1261      H1273   1.080       .  S
C1262      H1274   1.083       .  S
C1263      C1264   1.351       .  D
C1263      H1275   1.085       .  S
C1264      C1265   1.489       .  S
C1264      H1276   1.084       .  S
C1265      C1266   1.405       .  A
C1265      C1270   1.407       .  A
C1266      C1267   1.401       .  A
C1266      H1277   1.084       .  S
C1267      C1268   1.405       .  A
C1267      H1278   1.083       .  S
C1268      C1269   1.407       .  A
C1269      C1270   1.398       .  A
C1269      H1279   1.083       .  S
C1270      H1280   1.081       .  S
C1281      C1282   1.406       .  A
C1281      C1286   1.407       .  A
C1282      C1283   1.399       .  A
C1282      H1295   1.083       .  S
C1283      C1284   1.403       .  A
C1283      H1296   1.083       .  S
C1284      C1285   1.408       .  A
C1284      C1287   1.488       .  S
C1285      C1286   1.401       .  A
C1285      H1297   1.082       .  S
C1286      H1298   1.083       .  S
C1287      C1288   1.346       .  D
C1287      H1299   1.086       .  S
C1288      C1289   1.487       .  S
C1288      H1300   1.086       .  S
C1289      C1290   1.402       .  A
C1289      C1294   1.408       .  A
C1290      C1291   1.399       .  A
C1290      H1301   1.083       .  S
C1291      C1292   1.407       .  A
C1291      H1302   1.083       .  S
C1292      C1293   1.407       .  A
C1293      C1294   1.402       .  A
C1293      H1303   1.083       .  S
C1294      H1304   1.082       .  S
C1305      C1306   1.406       .  A
C1305      C1310   1.406       .  A
C1306      C1307   1.398       .  A
C1306      H1319   1.083       .  S
C1307      C1308   1.403       .  A
C1307      H1320   1.084       .  S
C1308      C1309   1.410       .  A
C1308      C1311   1.492   1_554  S
C1309      C1310   1.404       .  A
C1309      H1321   1.082       .  S
C1310      H1322   1.083       .  S
C1311      C1312   1.348       .  D
C1311      H1323   1.087       .  S
C1312      C1313   1.490       .  S
C1312      H1324   1.086       .  S
C1313      C1314   1.402       .  A
C1313      C1318   1.409       .  A
C1314      C1315   1.397       .  A
C1314      H1325   1.084       .  S
C1315      C1316   1.406       .  A
C1315      H1326   1.083       .  S
C1316      C1317   1.407       .  A
C1317      C1318   1.405       .  A
C1317      H1327   1.083       .  S
C1318      H1328   1.082       .  S
C1329      C1330   1.406       .  A
C1329      C1334   1.405       .  A
C1330      C1331   1.394       .  A
C1330      H1343   1.083       .  S
C1331      C1332   1.401       .  A
C1331      H1344   1.084       .  S
C1332      C1333   1.410       .  A
C1332      C1335   1.488       .  S
C1333      C1334   1.404       .  A
C1333      H1345   1.081       .  S
C1334      H1346   1.083       .  S
C1335      C1336   1.347       .  D
C1335      H1347   1.086       .  S
C1336      C1337   1.489       .  S
C1336      H1348   1.085       .  S
C1337      C1338   1.402       .  A
C1337      C1342   1.410       .  A
C1338      C1339   1.398       .  A
C1338      H1349   1.083       .  S
C1339      C1340   1.407       .  A
C1339      H1350   1.083       .  S
C1340      C1341   1.405       .  A
C1341      C1342   1.402       .  A
C1341      H1351   1.083       .  S
C1342      H1352   1.082       .  S
C1353      C1354   1.407       .  A
C1353      C1358   1.406       .  A
C1354      C1355   1.403       .  A
C1354      H1367   1.083       .  S
C1355      C1356   1.405       .  A
C1355      H1368   1.083       .  S
C1356      C1357   1.409       .  A
C1356      C1359   1.494       .  S
C1357      C1358   1.399       .  A
C1357      H1369   1.081       .  S
C1358      H1370   1.083       .  S
C1359      C1360   1.350   1_655  D
C1359      H1371   1.084       .  S
C1360      C1361   1.494       .  S
C1360      H1372   1.085   1_455  S
C1361      C1362   1.404       .  A
C1361      C1366   1.411       .  A
C1362      C1363   1.396       .  A
C1362      H1373   1.083       .  S
C1363      C1364   1.404       .  A
C1363      H1374   1.083       .  S
C1364      C1365   1.407       .  A
C1365      C1366   1.406       .  A
C1365      H1375   1.083       .  S
C1366      H1376   1.081       .  S
C1377      C1378   1.406       .  A
C1377      C1382   1.406       .  A
C1378      C1379   1.401       .  A
C1378      H1391   1.083       .  S
C1379      C1380   1.406       .  A
C1379      H1392   1.083       .  S
C1380      C1381   1.408       .  A
C1380      C1383   1.492       .  S
C1381      C1382   1.398       .  A
C1381      H1393   1.081       .  S
C1382      H1394   1.083       .  S
C1383      C1384   1.352       .  D
C1383      H1395   1.085       .  S
C1384      C1385   1.490       .  S
C1384      H1396   1.084       .  S
C1385      C1386   1.406       .  A
C1385      C1390   1.406       .  A
C1386      C1387   1.402       .  A
C1386      H1397   1.083       .  S
C1387      C1388   1.405       .  A
C1387      H1398   1.083       .  S
C1388      C1389   1.408       .  A
C1389      C1390   1.398       .  A
C1389      H1399   1.083       .  S
C1390      H1400   1.082       .  S
C1401      C1402   1.406       .  A
C1401      C1406   1.406       .  A
C1402      C1403   1.402       .  A
C1402      H1415   1.083       .  S
C1403      C1404   1.405       .  A
C1403      H1416   1.083       .  S
C1404      C1405   1.408       .  A
C1404      C1407   1.491       .  S
C1405      C1406   1.397       .  A
C1405      H1417   1.081       .  S
C1406      H1418   1.083       .  S
C1407      C1408   1.348       .  D
C1407      H1419   1.084       .  S
C1408      C1409   1.490       .  S
C1408      H1420   1.085       .  S
C1409      C1410   1.412       .  A
C1409      C1414   1.402       .  A
C1410      C1411   1.405       .  A
C1410      H1421   1.081       .  S
C1411      C1412   1.404       .  A
C1411      H1422   1.083       .  S
C1412      C1413   1.405       .  A
C1413      C1414   1.393       .  A
C1413      H1423   1.083       .  S
C1414      H1424   1.084       .  S
C1425      C1426   1.404       .  A
C1425      C1430   1.406       .  A
C1426      C1427   1.397       .  A
C1426      H1439   1.083       .  S
C1427      C1428   1.405       .  A
C1427      H1440   1.083       .  S
C1428      C1429   1.411       .  A
C1428      C1431   1.496       .  S
C1429      C1430   1.406       .  A
C1429      H1441   1.080       .  S
C1430      H1442   1.083       .  S
C1431      C1432   1.351   1_554  D
C1431      H1443   1.085       .  S
C1432      C1433   1.495       .  S
C1432      H1444   1.083   1_556  S
C1433      C1434   1.406       .  A
C1433      C1438   1.409       .  A
C1434      C1435   1.403       .  A
C1434      H1445   1.083       .  S
C1435      C1436   1.407       .  A
C1435      H1446   1.083       .  S
C1436      C1437   1.406       .  A
C1437      C1438   1.400       .  A
C1437      H1447   1.083       .  S
C1438      H1448   1.081       .  S
C1449      C1450   1.405       .  A
C1449      C1454   1.405       .  A
C1450      C1451   1.401       .  A
C1450      H1463   1.083       .  S
C1451      C1452   1.405       .  A
C1451      H1464   1.083       .  S
C1452      C1453   1.408       .  A
C1452      C1455   1.491       .  S
C1453      C1454   1.397       .  A
C1453      H1465   1.081       .  S
C1454      H1466   1.083       .  S
C1455      C1456   1.348   1_655  D
C1455      H1467   1.086       .  S
C1456      C1457   1.485       .  S
C1456      H1468   1.084   1_455  S
C1457      C1458   1.408       .  A
C1457      C1462   1.402       .  A
C1458      C1459   1.403       .  A
C1458      H1469   1.082       .  S
C1459      C1460   1.407       .  A
C1459      H1470   1.083       .  S
C1460      C1461   1.406       .  A
C1461      C1462   1.395       .  A
C1461      H1471   1.083       .  S
C1462      H1472   1.083       .  S
C1473      C1474   1.406       .  A
C1473      C1478   1.404       .  A
C1474      C1475   1.400       .  A
C1474      H1487   1.083       .  S
C1475      C1476   1.404       .  A
C1475      H1488   1.083       .  S
C1476      C1477   1.407       .  A
C1476      C1479   1.485       .  S
C1477      C1478   1.395       .  A
C1477      H1489   1.082       .  S
C1478      H1490   1.083       .  S
C1479      C1480   1.346       .  D
C1479      H1491   1.086       .  S
C1480      C1481   1.483       .  S
C1480      H1492   1.086       .  S
C1481      C1482   1.401       .  A
C1481      C1486   1.408       .  A
C1482      C1483   1.395       .  A
C1482      H1493   1.083       .  S
C1483      C1484   1.405       .  A
C1483      H1494   1.083       .  S
C1484      C1485   1.405       .  A
C1485      C1486   1.400       .  A
C1485      H1495   1.083       .  S
C1486      H1496   1.082       .  S
C1497      C1498   1.407       .  A
C1497      C1502   1.407       .  A
C1498      C1499   1.400       .  A
C1498      H1511   1.083       .  S
C1499      C1500   1.404       .  A
C1499      H1512   1.084       .  S
C1500      C1501   1.410       .  A
C1500      C1503   1.496       .  S
C1501      C1502   1.407       .  A
C1501      H1513   1.082       .  S
C1502      H1514   1.083       .  S
C1503      C1504   1.351       .  D
C1503      H1515   1.086       .  S
C1504      C1505   1.497       .  S
C1504      H1516   1.086       .  S
C1505      C1506   1.410       .  A
C1505      C1510   1.404       .  A
C1506      C1507   1.407       .  A
C1506      H1517   1.082       .  S
C1507      C1508   1.408       .  A
C1507      H1518   1.083       .  S
C1508      C1509   1.407       .  A
C1509      C1510   1.401       .  A
C1509      H1519   1.083       .  S
C1510      H1520   1.084       .  S
C1521      C1522   1.405       .  A
C1521      C1526   1.407       .  A
C1522      C1523   1.395       .  A
C1522      H1535   1.083       .  S
C1523      C1524   1.403       .  A
C1523      H1536   1.084       .  S
C1524      C1525   1.410       .  A
C1524      C1527   1.490       .  S
C1525      C1526   1.405       .  A
C1525      H1537   1.081       .  S
C1526      H1538   1.083       .  S
C1527      C1528   1.349       .  D
C1527      H1539   1.084       .  S
C1528      C1529   1.495       .  S
C1528      H1540   1.085       .  S
C1529      C1530   1.406       .  A
C1529      C1534   1.410       .  A
C1530      C1531   1.402       .  A
C1530      H1541   1.083       .  S
C1531      C1532   1.405       .  A
C1531      H1542   1.083       .  S
C1532      C1533   1.404       .  A
C1533      C1534   1.397       .  A
C1533      H1543   1.083       .  S
C1534      H1544   1.080       .  S
C1545      C1546   1.407       .  A
C1545      C1550   1.404       .  A
C1546      C1547   1.403       .  A
C1546      H1559   1.083       .  S
C1547      C1548   1.404       .  A
C1547      H1560   1.083       .  S
C1548      C1549   1.408       .  A
C1548      C1551   1.490       .  S
C1549      C1550   1.396       .  A
C1549      H1561   1.082       .  S
C1550      H1562   1.083       .  S
C1551      C1552   1.347       .  D
C1551      H1563   1.085       .  S
C1552      C1553   1.487       .  S
C1552      H1564   1.086       .  S
C1553      C1554   1.402       .  A
C1553      C1558   1.411       .  A
C1554      C1555   1.392       .  A
C1554      H1565   1.084       .  S
C1555      C1556   1.403       .  A
C1555      H1566   1.083       .  S
C1556      C1557   1.405       .  A
C1557      C1558   1.406       .  A
C1557      H1567   1.083       .  S
C1558      H1568   1.081       .  S
C1569      C1570   1.405       .  A
C1569      C1574   1.405       .  A
C1570      C1571   1.399       .  A
C1570      H1583   1.083       .  S
C1571      C1572   1.403       .  A
C1571      H1584   1.083       .  S
C1572      C1573   1.408       .  A
C1572      C1575   1.487       .  S
C1573      C1574   1.399       .  A
C1573      H1585   1.082       .  S
C1574      H1586   1.083       .  S
C1575      C1576   1.349       .  D
C1575      H1587   1.086       .  S
C1576      C1577   1.487       .  S
C1576      H1588   1.086       .  S
C1577      C1578   1.403       .  A
C1577      C1582   1.408       .  A
C1578      C1579   1.398       .  A
C1578      H1589   1.084       .  S
C1579      C1580   1.404       .  A
C1579      H1590   1.083       .  S
C1580      C1581   1.405       .  A
C1581      C1582   1.401       .  A
C1581      H1591   1.084       .  S
C1582      H1592   1.082       .  S
C1593      C1594   1.405       .  A
C1593      C1598   1.406       .  A
C1594      C1595   1.400       .  A
C1594      H1607   1.083       .  S
C1595      C1596   1.403       .  A
C1595      H1608   1.083       .  S
C1596      C1597   1.404       .  A
C1596      C1599   1.482       .  S
C1597      C1598   1.394       .  A
C1597      H1609   1.082       .  S
C1598      H1610   1.083       .  S
C1599      C1600   1.350       .  D
C1599      H1611   1.084       .  S
C1600      C1601   1.484       .  S
C1600      H1612   1.086       .  S
C1601      C1602   1.405       .  A
C1601      C1606   1.405       .  A
C1602      C1603   1.399       .  A
C1602      H1613   1.084       .  S
C1603      C1604   1.404       .  A
C1603      H1614   1.083       .  S
C1604      C1605   1.407       .  A
C1605      C1606   1.395       .  A
C1605      H1615   1.083       .  S
C1606      H1616   1.081       .  S
C1617      C1618   1.407       .  A
C1617      C1622   1.406       .  A
C1618      C1619   1.404       .  A
C1618      H1631   1.083       .  S
C1619      C1620   1.406       .  A
C1619      H1632   1.083       .  S
C1620      C1621   1.410       .  A
C1620      C1623   1.499       .  S
C1621      C1622   1.401       .  A
C1621      H1633   1.081       .  S
C1622      H1634   1.083       .  S
C1623      C1624   1.352       .  D
C1623      H1635   1.084       .  S
C1624      C1625   1.497       .  S
C1624      H1636   1.085       .  S
C1625      C1626   1.404       .  A
C1625      C1630   1.412       .  A
C1626      C1627   1.396       .  A
C1626      H1637   1.084       .  S
C1627      C1628   1.405       .  A
C1627      H1638   1.083       .  S
C1628      C1629   1.407       .  A
C1629      C1630   1.409       .  A
C1629      H1639   1.083       .  S
C1630      H1640   1.081       .  S
C1641      C1642   1.405       .  A
C1641      C1646   1.405       .  A
C1642      C1643   1.395       .  A
C1642      H1655   1.083       .  S
C1643      C1644   1.402       .  A
C1643      H1656   1.084       .  S
C1644      C1645   1.408       .  A
C1644      C1647   1.485       .  S
C1645      C1646   1.399       .  A
C1645      H1657   1.081       .  S
C1646      H1658   1.083       .  S
C1647      C1648   1.346       .  D
C1647      H1659   1.085       .  S
C1648      C1649   1.485       .  S
C1648      H1660   1.085       .  S
C1649      C1650   1.403       .  A
C1649      C1654   1.408       .  A
C1650      C1651   1.396       .  A
C1650      H1661   1.083       .  S
C1651      C1652   1.404       .  A
C1651      H1662   1.083       .  S
C1652      C1653   1.404       .  A
C1653      C1654   1.397       .  A
C1653      H1663   1.083       .  S
C1654      H1664   1.081       .  S
C1665      C1666   1.406       .  A
C1665      C1670   1.405       .  A
C1666      C1667   1.401       .  A
C1666      H1679   1.083       .  S
C1667      C1668   1.407       .  A
C1667      H1680   1.082       .  S
C1668      C1669   1.404       .  A
C1668      C1671   1.489       .  S
C1669      C1670   1.399       .  A
C1669      H1681   1.084       .  S
C1670      H1682   1.083       .  S
C1671      C1672   1.350       .  D
C1671      H1683   1.086       .  S
C1672      C1673   1.489       .  S
C1672      H1684   1.086       .  S
C1673      C1674   1.404       .  A
C1673      C1678   1.408       .  A
C1674      C1675   1.399       .  A
C1674      H1685   1.084       .  S
C1675      C1676   1.405       .  A
C1675      H1686   1.083       .  S
C1676      C1677   1.406       .  A
C1677      C1678   1.401       .  A
C1677      H1687   1.083       .  S
C1678      H1688   1.082       .  S
C1689      C1690   1.406       .  A
C1689      C1694   1.405       .  A
C1690      C1691   1.402       .  A
C1690      H1703   1.083       .  S
C1691      C1692   1.405       .  A
C1691      H1704   1.083       .  S
C1692      C1693   1.408       .  A
C1692      C1695   1.491       .  S
C1693      C1694   1.397       .  A
C1693      H1705   1.081       .  S
C1694      H1706   1.083       .  S
C1695      C1696   1.349       .  D
C1695      H1707   1.084       .  S
C1696      C1697   1.491       .  S
C1696      H1708   1.085       .  S
C1697      C1698   1.403       .  A
C1697      C1702   1.411       .  A
C1698      C1699   1.395       .  A
C1698      H1709   1.083       .  S
C1699      C1700   1.404       .  A
C1699      H1710   1.084       .  S
C1700      C1701   1.406       .  A
C1701      C1702   1.405       .  A
C1701      H1711   1.083       .  S
C1702      H1712   1.081       .  S
C1713      C1714   1.405       .  A
C1713      C1718   1.405       .  A
C1714      C1715   1.395       .  A
C1714      H1727   1.083       .  S
C1715      C1716   1.403       .  A
C1715      H1728   1.084       .  S
C1716      C1717   1.412       .  A
C1716      C1719   1.493       .  S
C1717      C1718   1.405       .  A
C1717      H1729   1.080       .  S
C1718      H1730   1.083       .  S
C1719      C1720   1.348       .  D
C1719      H1731   1.086       .  S
C1720      C1721   1.490       .  S
C1720      H1732   1.084       .  S
C1721      C1722   1.403       .  A
C1721      C1726   1.409       .  A
C1722      C1723   1.400       .  A
C1722      H1733   1.083       .  S
C1723      C1724   1.407       .  A
C1723      H1734   1.083       .  S
C1724      C1725   1.406       .  A
C1725      C1726   1.401       .  A
C1725      H1735   1.083       .  S
C1726      H1736   1.082       .  S
C1737      C1738   1.404   1_554  A
C1737      C1742   1.406       .  A
C1738      C1739   1.397       .  A
C1738      H1751   1.083       .  S
C1739      C1740   1.404       .  A
C1739      H1752   1.084       .  S
C1740      C1741   1.411   1_556  A
C1740      C1743   1.494       .  S
C1741      C1742   1.408       .  A
C1741      H1753   1.081       .  S
C1742      H1754   1.083       .  S
C1743      C1744   1.352   1_556  D
C1743      H1755   1.085       .  S
C1744      C1745   1.498       .  S
C1744      H1756   1.085       .  S
C1745      C1746   1.407       .  A
C1745      C1750   1.409       .  A
C1746      C1747   1.405       .  A
C1746      H1757   1.083       .  S
C1747      C1748   1.407       .  A
C1747      H1758   1.083       .  S
C1748      C1749   1.407       .  A
C1749      C1750   1.400       .  A
C1749      H1759   1.083   1_554  S
C1750      H1760   1.081   1_554  S
C1761      C1762   1.407       .  A
C1761      C1766   1.404       .  A
C1762      C1763   1.398       .  A
C1762      H1775   1.083       .  S
C1763      C1764   1.405       .  A
C1763      H1776   1.082       .  S
C1764      C1765   1.405       .  A
C1764      C1767   1.486       .  S
C1765      C1766   1.401       .  A
C1765      H1777   1.083       .  S
C1766      H1778   1.083       .  S
C1767      C1768   1.351       .  D
C1767      H1779   1.084       .  S
C1768      C1769   1.490       .  S
C1768      H1780   1.086       .  S
C1769      C1770   1.406       .  A
C1769      C1774   1.407       .  A
C1770      C1771   1.402       .  A
C1770      H1781   1.083       .  S
C1771      C1772   1.406       .  A
C1771      H1782   1.083       .  S
C1772      C1773   1.406       .  A
C1773      C1774   1.397       .  A
C1773      H1783   1.083       .  S
C1774      H1784   1.081       .  S
C1785      C1786   1.405       .  A
C1785      C1790   1.404       .  A
C1786      C1787   1.401       .  A
C1786      H1799   1.083       .  S
C1787      C1788   1.404       .  A
C1787      H1800   1.083       .  S
C1788      C1789   1.406       .  A
C1788      C1791   1.486       .  S
C1789      C1790   1.396       .  A
C1789      H1801   1.082       .  S
C1790      H1802   1.083       .  S
C1791      C1792   1.351       .  D
C1791      H1803   1.084       .  S
C1792      C1793   1.489       .  S
C1792      H1804   1.086       .  S
C1793      C1794   1.408       .  A
C1793      C1798   1.405       .  A
C1794      C1795   1.399       .  A
C1794      H1805   1.080       .  S
C1795      C1796   1.407       .  A
C1795      H1806   1.083       .  S
C1796      C1797   1.404       .  A
C1797      C1798   1.398       .  A
C1797      H1807   1.083       .  S
C1798      H1808   1.083       .  S
C1809      C1810   1.406       .  A
C1809      C1814   1.406       .  A
C1810      C1811   1.399       .  A
C1810      H1823   1.083       .  S
C1811      C1812   1.403       .  A
C1811      H1824   1.083       .  S
C1812      C1813   1.408       .  A
C1812      C1815   1.488       .  S
C1813      C1814   1.400       .  A
C1813      H1825   1.082       .  S
C1814      H1826   1.083       .  S
C1815      C1816   1.349       .  D
C1815      H1827   1.085       .  S
C1816      C1817   1.487       .  S
C1816      H1828   1.085       .  S
C1817      C1818   1.402       .  A
C1817      C1822   1.409       .  A
C1818      C1819   1.396       .  A
C1818      H1829   1.083       .  S
C1819      C1820   1.405       .  A
C1819      H1830   1.084       .  S
C1820      C1821   1.404       .  A
C1821      C1822   1.402       .  A
C1821      H1831   1.083       .  S
C1822      H1832   1.082       .  S
C1833      C1834   1.404       .  A
C1833      C1838   1.405       .  A
C1834      C1835   1.397       .  A
C1834      H1847   1.083       .  S
C1835      C1836   1.404       .  A
C1835      H1848   1.084       .  S
C1836      C1837   1.408       .  A
C1836      C1839   1.489       .  S
C1837      C1838   1.402       .  A
C1837      H1849   1.082       .  S
C1838      H1850   1.083       .  S
C1839      C1840   1.350       .  D
C1839      H1851   1.085       .  S
C1840      C1841   1.491       .  S
C1840      H1852   1.086       .  S
C1841      C1842   1.404       .  A
C1841      C1846   1.408       .  A
C1842      C1843   1.399       .  A
C1842      H1853   1.084       .  S
C1843      C1844   1.405       .  A
C1843      H1854   1.083       .  S
C1844      C1845   1.407       .  A
C1845      C1846   1.401       .  A
C1845      H1855   1.083       .  S
C1846      H1856   1.082       .  S
C1857      C1858   1.405       .  A
C1857      C1862   1.406       .  A
C1858      C1859   1.395       .  A
C1858      H1871   1.083       .  S
C1859      C1860   1.404       .  A
C1859      H1872   1.083       .  S
C1860      C1861   1.411       .  A
C1860      C1863   1.495       .  S
C1861      C1862   1.407       .  A
C1861      H1873   1.081       .  S
C1862      H1874   1.083       .  S
C1863      C1864   1.351       .  D
C1863      H1875   1.084       .  S
C1864      C1865   1.497       .  S
C1864      H1876   1.084       .  S
C1865      C1866   1.407       .  A
C1865      C1870   1.409       .  A
C1866      C1867   1.405       .  A
C1866      H1877   1.083       .  S
C1867      C1868   1.407       .  A
C1867      H1878   1.083       .  S
C1868      C1869   1.406       .  A
C1869      C1870   1.398       .  A
C1869      H1879   1.083       .  S
C1870      H1880   1.080       .  S
C1881      C1882   1.406       .  A
C1881      C1886   1.404       .  A
C1882      C1883   1.402       .  A
C1882      H1895   1.083       .  S
C1883      C1884   1.405       .  A
C1883      H1896   1.083       .  S
C1884      C1885   1.409       .  A
C1884      C1887   1.494       .  S
C1885      C1886   1.398       .  A
C1885      H1897   1.082       .  S
C1886      H1898   1.083       .  S
C1887      C1888   1.349       .  D
C1887      H1899   1.084       .  S
C1888      C1889   1.492       .  S
C1888      H1900   1.085       .  S
C1889      C1890   1.402       .  A
C1889      C1894   1.411       .  A
C1890      C1891   1.392       .  A
C1890      H1901   1.084       .  S
C1891      C1892   1.405       .  A
C1891      H1902   1.083       .  S
C1892      C1893   1.408       .  A
C1893      C1894   1.408       .  A
C1893      H1903   1.083       .  S
C1894      H1904   1.081       .  S
C1905      C1906   1.404       .  A
C1905      C1910   1.406       .  A
C1906      C1907   1.399       .  A
C1906      H1919   1.083       .  S
C1907      C1908   1.403       .  A
C1907      H1920   1.083       .  S
C1908      C1909   1.405       .  A
C1908      C1911   1.482       .  S
C1909      C1910   1.396       .  A
C1909      H1921   1.082       .  S
C1910      H1922   1.083       .  S
C1911      C1912   1.348       .  D
C1911      H1923   1.084       .  S
C1912      C1913   1.485       .  S
C1912      H1924   1.086       .  S
C1913      C1914   1.408       .  A
C1913      C1918   1.404       .  A
C1914      C1915   1.397       .  A
C1914      H1925   1.081       .  S
C1915      C1916   1.405       .  A
C1915      H1926   1.083       .  S
C1916      C1917   1.405       .  A
C1917      C1918   1.397       .  A
C1917      H1927   1.083       .  S
C1918      H1928   1.084       .  S
C1929      C1930   1.406       .  A
C1929      C1934   1.405       .  A
C1930      C1931   1.398       .  A
C1930      H1943   1.083       .  S
C1931      C1932   1.402       .  A
C1931      H1944   1.084       .  S
C1932      C1933   1.406       .  A
C1932      C1935   1.482       .  S
C1933      C1934   1.396       .  A
C1933      H1945   1.082       .  S
C1934      H1946   1.083       .  S
C1935      C1936   1.346       .  D
C1935      H1947   1.086       .  S
C1936      C1937   1.482       .  S
C1936      H1948   1.087       .  S
C1937      C1938   1.402       .  A
C1937      C1942   1.407       .  A
C1938      C1939   1.396       .  A
C1938      H1949   1.084       .  S
C1939      C1940   1.406       .  A
C1939      H1950   1.083       .  S
C1940      C1941   1.405       .  A
C1941      C1942   1.399       .  A
C1941      H1951   1.083       .  S
C1942      H1952   1.082       .  S
C1953      C1954   1.405       .  A
C1953      C1958   1.405       .  A
C1954      C1955   1.398       .  A
C1954      H1967   1.083       .  S
C1955      C1956   1.405       .  A
C1955      H1968   1.083       .  S
C1956      C1957   1.409       .  A
C1956      C1959   1.491       .  S
C1957      C1958   1.399       .  A
C1957      H1969   1.080       .  S
C1958      H1970   1.083       .  S
C1959      C1960   1.349       .  D
C1959      H1971   1.085       .  S
C1960      C1961   1.488       .  S
C1960      H1972   1.083       .  S
C1961      C1962   1.404       .  A
C1961      C1966   1.408       .  A
C1962      C1963   1.399       .  A
C1962      H1973   1.083       .  S
C1963      C1964   1.406       .  A
C1963      H1974   1.083       .  S
C1964      C1965   1.406       .  A
C1965      C1966   1.399       .  A
C1965      H1975   1.083       .  S
C1966      H1976   1.081       .  S
C1977      C1978   1.406       .  A
C1977      C1982   1.404       .  A
C1978      C1979   1.401       .  A
C1978      H1991   1.083       .  S
C1979      C1980   1.405       .  A
C1979      H1992   1.083       .  S
C1980      C1981   1.409       .  A
C1980      C1983   1.492       .  S
C1981      C1982   1.399       .  A
C1981      H1993   1.081       .  S
C1982      H1994   1.083       .  S
C1983      C1984   1.350       .  D
C1983      H1995   1.083       .  S
C1984      C1985   1.494       .  S
C1984      H1996   1.085       .  S
C1985      C1986   1.405       .  A
C1985      C1990   1.410       .  A
C1986      C1987   1.397       .  A
C1986      H1997   1.083       .  S
C1987      C1988   1.404       .  A
C1987      H1998   1.083       .  S
C1988      C1989   1.407       .  A
C1989      C1990   1.403       .  A
C1989      H1999   1.083       .  S
C1990      H2000   1.080       .  S
C2001      C2002   1.406       .  A
C2001      C2006   1.404       .  A
C2002      C2003   1.397       .  A
C2002      H2015   1.083       .  S
C2003      C2004   1.402       .  A
C2003      H2016   1.084       .  S
C2004      C2005   1.408       .  A
C2004      C2007   1.485       .  S
C2005      C2006   1.399       .  A
C2005      H2017   1.081       .  S
C2006      H2018   1.083       .  S
C2007      C2008   1.347       .  D
C2007      H2019   1.086       .  S
C2008      C2009   1.481       .  S
C2008      H2020   1.085       .  S
C2009      C2010   1.401       .  A
C2009      C2014   1.408       .  A
C2010      C2011   1.395       .  A
C2010      H2021   1.083       .  S
C2011      C2012   1.404       .  A
C2011      H2022   1.084       .  S
C2012      C2013   1.403       .  A
C2013      C2014   1.399       .  A
C2013      H2023   1.083       .  S
C2014      H2024   1.083       .  S
C2025      C2026   1.405       .  A
C2025      C2030   1.405       .  A
C2026      C2027   1.399       .  A
C2026      H2039   1.083       .  S
C2027      C2028   1.403       .  A
C2027      H2040   1.083       .  S
C2028      C2029   1.409       .  A
C2028      C2031   1.489       .  S
C2029      C2030   1.401       .  A
C2029      H2041   1.082       .  S
C2030      H2042   1.083       .  S
C2031      C2032   1.349       .  D
C2031      H2043   1.085       .  S
C2032      C2033   1.487       .  S
C2032      H2044   1.085       .  S
C2033      C2034   1.403       .  A
C2033      C2038   1.408       .  A
C2034      C2035   1.398       .  A
C2034      H2045   1.083       .  S
C2035      C2036   1.405       .  A
C2035      H2046   1.084       .  S
C2036      C2037   1.404       .  A
C2037      C2038   1.401       .  A
C2037      H2047   1.083       .  S
C2038      H2048   1.082       .  S
C2049      C2050   1.406       .  A
C2049      C2054   1.406       .  A
C2050      C2051   1.404       .  A
C2050      H2063   1.083       .  S
C2051      C2052   1.407       .  A
C2051      H2064   1.083       .  S
C2052      C2053   1.409       .  A
C2052      C2055   1.499       .  S
C2053      C2054   1.399       .  A
C2053      H2065   1.080       .  S
C2054      H2066   1.083       .  S
C2055      C2056   1.353       .  D
C2055      H2067   1.084       .  S
C2056      C2057   1.496       .  S
C2056      H2068   1.083       .  S
C2057      C2058   1.406       .  A
C2057      C2062   1.410       .  A
C2058      C2059   1.399       .  A
C2058      H2069   1.083       .  S
C2059      C2060   1.404       .  A
C2059      H2070   1.083       .  S
C2060      C2061   1.408       .  A
C2061      C2062   1.404       .  A
C2061      H2071   1.083       .  S
C2062      H2072   1.080       .  S
C2073      C2074   1.406       .  A
C2073      C2078   1.407       .  A
C2074      C2075   1.395       .  A
C2074      H2087   1.083       .  S
C2075      C2076   1.402       .  A
C2075      H2088   1.084       .  S
C2076      C2077   1.411       .  A
C2076      C2079   1.492       .  S
C2077      C2078   1.406       .  A
C2077      H2089   1.081       .  S
C2078      H2090   1.083       .  S
C2079      C2080   1.349       .  D
C2079      H2091   1.084       .  S
C2080      C2081   1.495       .  S
C2080      H2092   1.084       .  S
C2081      C2082   1.405       .  A
C2081      C2086   1.409       .  A
C2082      C2083   1.402       .  A
C2082      H2093   1.083       .  S
C2083      C2084   1.407       .  A
C2083      H2094   1.083       .  S
C2084      C2085   1.406       .  A
C2085      C2086   1.399       .  A
C2085      H2095   1.083       .  S
C2086      H2096   1.081       .  S
C2097      C2098   1.405       .  A
C2097      C2102   1.406       .  A
C2098      C2099   1.396       .  A
C2098      H2111   1.083       .  S
C2099      C2100   1.404       .  A
C2099      H2112   1.083       .  S
C2100      C2101   1.411       .  A
C2100      C2103   1.494       .  S
C2101      C2102   1.406       .  A
C2101      H2113   1.081       .  S
C2102      H2114   1.083       .  S
C2103      C2104   1.350       .  D
C2103      H2115   1.085       .  S
C2104      C2105   1.493       .  S
C2104      H2116   1.084       .  S
C2105      C2106   1.405       .  A
C2105      C2110   1.409       .  A
C2106      C2107   1.402       .  A
C2106      H2117   1.083       .  S
C2107      C2108   1.406       .  A
C2107      H2118   1.083       .  S
C2108      C2109   1.406       .  A
C2109      C2110   1.400       .  A
C2109      H2119   1.083       .  S
C2110      H2120   1.081       .  S
C2121      C2122   1.406       .  A
C2121      C2126   1.406       .  A
C2122      C2123   1.396       .  A
C2122      H2135   1.083       .  S
C2123      C2124   1.403       .  A
C2123      H2136   1.083       .  S
C2124      C2125   1.411       .  A
C2124      C2127   1.493       .  S
C2125      C2126   1.406       .  A
C2125      H2137   1.081       .  S
C2126      H2138   1.083       .  S
C2127      C2128   1.350       .  D
C2127      H2139   1.085       .  S
C2128      C2129   1.495       .  S
C2128      H2140   1.084       .  S
C2129      C2130   1.405       .  A
C2129      C2134   1.410       .  A
C2130      C2131   1.402       .  A
C2130      H2141   1.083       .  S
C2131      C2132   1.406       .  A
C2131      H2142   1.083       .  S
C2132      C2133   1.405       .  A
C2133      C2134   1.400       .  A
C2133      H2143   1.083       .  S
C2134      H2144   1.081       .  S
C2145      C2146   1.406       .  A
C2145      C2150   1.406       .  A
C2146      C2147   1.396       .  A
C2146      H2159   1.083       .  S
C2147      C2148   1.402       .  A
C2147      H2160   1.084       .  S
C2148      C2149   1.409       .  A
C2148      C2151   1.488       .  S
C2149      C2150   1.403       .  A
C2149      H2161   1.081       .  S
C2150      H2162   1.083       .  S
C2151      C2152   1.347       .  D
C2151      H2163   1.087       .  S
C2152      C2153   1.488       .  S
C2152      H2164   1.086       .  S
C2153      C2154   1.404       .  A
C2153      C2158   1.407       .  A
C2154      C2155   1.400       .  A
C2154      H2165   1.083       .  S
C2155      C2156   1.405       .  A
C2155      H2166   1.083       .  S
C2156      C2157   1.405       .  A
C2157      C2158   1.398       .  A
C2157      H2167   1.083       .  S
C2158      H2168   1.082       .  S
C2169      C2170   1.406       .  A
C2169      C2174   1.406       .  A
C2170      C2171   1.398       .  A
C2170      H2183   1.083       .  S
C2171      C2172   1.404       .  A
C2171      H2184   1.084       .  S
C2172      C2173   1.407       .  A
C2172      C2175   1.488       .  S
C2173      C2174   1.401       .  A
C2173      H2185   1.082       .  S
C2174      H2186   1.083       .  S
C2175      C2176   1.349       .  D
C2175      H2187   1.086       .  S
C2176      C2177   1.487       .  S
C2176      H2188   1.086       .  S
C2177      C2178   1.403       .  A
C2177      C2182   1.407       .  A
C2178      C2179   1.397       .  A
C2178      H2189   1.084       .  S
C2179      C2180   1.405       .  A
C2179      H2190   1.083       .  S
C2180      C2181   1.405       .  A
C2181      C2182   1.401       .  A
C2181      H2191   1.083       .  S
C2182      H2192   1.082       .  S
C2193      C2194   1.405       .  A
C2193      C2198   1.405       .  A
C2194      C2195   1.396       .  A
C2194      H2207   1.083       .  S
C2195      C2196   1.403       .  A
C2195      H2208   1.083       .  S
C2196      C2197   1.409       .  A
C2196      C2199   1.486       .  S
C2197      C2198   1.400       .  A
C2197      H2209   1.081       .  S
C2198      H2210   1.083       .  S
C2199      C2200   1.348       .  D
C2199      H2211   1.086       .  S
C2200      C2201   1.484       .  S
C2200      H2212   1.085       .  S
C2201      C2202   1.401       .  A
C2201      C2206   1.408       .  A
C2202      C2203   1.396       .  A
C2202      H2213   1.084       .  S
C2203      C2204   1.405       .  A
C2203      H2214   1.083       .  S
C2204      C2205   1.404       .  A
C2205      C2206   1.400       .  A
C2205      H2215   1.083       .  S
C2206      H2216   1.082       .  S
C2217      C2218   1.407       .  A
C2217      C2222   1.406       .  A
C2218      C2219   1.404       .  A
C2218      H2231   1.083       .  S
C2219      C2220   1.409       .  A
C2219      H2232   1.082       .  S
C2220      C2221   1.404       .  A
C2220      C2223   1.493       .  S
C2221      C2222   1.400       .  A
C2221      H2233   1.083       .  S
C2222      H2234   1.083       .  S
C2223      C2224   1.350       .  D
C2223      H2235   1.086       .  S
C2224      C2225   1.492       .  S
C2224      H2236   1.085       .  S
C2225      C2226   1.404       .  A
C2225      C2230   1.409       .  A
C2226      C2227   1.398       .  A
C2226      H2237   1.083       .  S
C2227      C2228   1.404       .  A
C2227      H2238   1.083       .  S
C2228      C2229   1.407       .  A
C2229      C2230   1.404       .  A
C2229      H2239   1.083       .  S
C2230      H2240   1.082       .  S
C2241      C2242   1.408       .  A
C2241      C2246   1.406       .  A
C2242      C2243   1.399       .  A
C2242      H2255   1.083       .  S
C2243      C2244   1.404       .  A
C2243      H2256   1.083       .  S
C2244      C2245   1.412       .  A
C2244      C2247   1.497       .  S
C2245      C2246   1.405       .  A
C2245      H2257   1.080       .  S
C2246      H2258   1.083       .  S
C2247      C2248   1.351       .  D
C2247      H2259   1.084       .  S
C2248      C2249   1.496       .  S
C2248      H2260   1.083       .  S
C2249      C2250   1.404       .  A
C2249      C2254   1.411       .  A
C2250      C2251   1.399       .  A
C2250      H2261   1.083       .  S
C2251      C2252   1.406       .  A
C2251      H2262   1.083       .  S
C2252      C2253   1.407       .  A
C2253      C2254   1.405       .  A
C2253      H2263   1.083       .  S
C2254      H2264   1.081       .  S
C2265      C2266   1.407       .  A
C2265      C2270   1.403       .  A
C2266      C2267   1.398       .  A
C2266      H2279   1.083       .  S
C2267      C2268   1.400       .  A
C2267      H2280   1.084       .  S
C2268      C2269   1.406       .  A
C2268      C2271   1.479       .  S
C2269      C2270   1.396       .  A
C2269      H2281   1.083       .  S
C2270      H2282   1.083       .  S
C2271      C2272   1.343       .  D
C2271      H2283   1.086       .  S
C2272      C2273   1.480       .  S
C2272      H2284   1.088       .  S
C2273      C2274   1.400       .  A
C2273      C2278   1.407       .  A
C2274      C2275   1.393       .  A
C2274      H2285   1.084       .  S
C2275      C2276   1.406       .  A
C2275      H2286   1.083       .  S
C2276      C2277   1.406       .  A
C2277      C2278   1.401       .  A
C2277      H2287   1.083       .  S
C2278      H2288   1.082       .  S
C2289      C2290   1.406       .  A
C2289      C2294   1.405       .  A
C2290      C2291   1.396       .  A
C2290      H2303   1.084       .  S
C2291      C2292   1.406       .  A
C2291      H2304   1.082       .  S
C2292      C2293   1.405       .  A
C2292      C2295   1.487       .  S
C2293      C2294   1.402       .  A
C2293      H2305   1.083       .  S
C2294      H2306   1.083       .  S
C2295      C2296   1.351       .  D
C2295      H2307   1.085       .  S
C2296      C2297   1.488       .  S
C2296      H2308   1.086       .  S
C2297      C2298   1.405       .  A
C2297      C2302   1.406       .  A
C2298      C2299   1.400       .  A
C2298      H2309   1.083       .  S
C2299      C2300   1.405       .  A
C2299      H2310   1.083       .  S
C2300      C2301   1.407       .  A
C2301      C2302   1.398       .  A
C2301      H2311   1.083       .  S
C2302      H2312   1.081       .  S
C2313      C2314   1.403       .  A
C2313      C2318   1.405       .  A
C2314      C2315   1.401       .  A
C2314      H2327   1.083   1_554  S
C2315      C2316   1.408       .  A
C2315      H2328   1.083       .  S
C2316      C2317   1.409       .  A
C2316      C2319   1.495       .  S
C2317      C2318   1.396       .  A
C2317      H2329   1.079       .  S
C2318      H2330   1.084       .  S
C2319      C2320   1.351       .  D
C2319      H2331   1.085       .  S
C2320      C2321   1.488       .  S
C2320      H2332   1.082       .  S
C2321      C2322   1.404       .  A
C2321      C2326   1.407       .  A
C2322      C2323   1.398       .  A
C2322      H2333   1.084       .  S
C2323      C2324   1.405       .  A
C2323      H2334   1.083       .  S
C2324      C2325   1.407       .  A
C2325      C2326   1.400       .  A
C2325      H2335   1.083       .  S
C2326      H2336   1.081       .  S
C2337      C2338   1.408       .  A
C2337      C2342   1.407       .  A
C2338      C2339   1.392       .  A
C2338      H2351   1.083       .  S
C2339      C2340   1.399       .  A
C2339      H2352   1.084       .  S
C2340      C2341   1.410       .  A
C2340      C2343   1.486       .  S
C2341      C2342   1.409       .  A
C2341      H2353   1.082       .  S
C2342      H2354   1.083       .  S
C2343      C2344   1.346       .  D
C2343      H2355   1.087       .  S
C2344      C2345   1.489       .  S
C2344      H2356   1.086       .  S
C2345      C2346   1.405       .  A
C2345      C2350   1.406       .  A
C2346      C2347   1.405       .  A
C2346      H2357   1.083       .  S
C2347      C2348   1.407       .  A
C2347      H2358   1.083       .  S
C2348      C2349   1.405       .  A
C2349      C2350   1.396       .  A
C2349      H2359   1.083       .  S
C2350      H2360   1.083       .  S
C2361      C2362   1.405       .  A
C2361      C2366   1.408       .  A
C2362      C2363   1.394       .  A
C2362      H2375   1.083       .  S
C2363      C2364   1.402       .  A
C2363      H2376   1.084       .  S
C2364      C2365   1.408       .  A
C2364      C2367   1.486       .  S
C2365      C2366   1.406       .  A
C2365      H2377   1.082       .  S
C2366      H2378   1.083       .  S
C2367      C2368   1.347       .  D
C2367      H2379   1.087       .  S
C2368      C2369   1.487       .  S
C2368      H2380   1.086       .  S
C2369      C2370   1.404       .  A
C2369      C2374   1.405       .  A
C2370      C2371   1.403       .  A
C2370      H2381   1.083       .  S
C2371      C2372   1.407       .  A
C2371      H2382   1.083       .  S
C2372      C2373   1.406       .  A
C2373      C2374   1.396       .  A
C2373      H2383   1.083       .  S
C2374      H2384   1.083       .  S
C2385      C2386   1.405       .  A
C2385      C2390   1.405       .  A
C2386      C2387   1.396       .  A
C2386      H2399   1.083       .  S
C2387      C2388   1.402       .  A
C2387      H2400   1.083       .  S
C2388      C2389   1.408       .  A
C2388      C2391   1.485       .  S
C2389      C2390   1.399       .  A
C2389      H2401   1.082       .  S
C2390      H2402   1.083       .  S
C2391      C2392   1.348       .  D
C2391      H2403   1.086       .  S
C2392      C2393   1.483       .  S
C2392      H2404   1.085       .  S
C2393      C2394   1.401       .  A
C2393      C2398   1.408       .  A
C2394      C2395   1.396       .  A
C2394      H2405   1.083       .  S
C2395      C2396   1.405       .  A
C2395      H2406   1.084       .  S
C2396      C2397   1.403       .  A
C2397      C2398   1.400       .  A
C2397      H2407   1.083       .  S
C2398      H2408   1.083       .  S
C2409      C2410   1.404       .  A
C2409      C2414   1.408       .  A
C2410      C2411   1.401       .  A
C2410      H2423   1.083       .  S
C2411      C2412   1.407       .  A
C2411      H2424   1.083       .  S
C2412      C2413   1.407       .  A
C2412      C2415   1.493       .  S
C2413      C2414   1.401       .  A
C2413      H2425   1.081       .  S
C2414      H2426   1.083       .  S
C2415      C2416   1.353       .  D
C2415      H2427   1.085       .  S
C2416      C2417   1.491       .  S
C2416      H2428   1.083       .  S
C2417      C2418   1.406       .  A
C2417      C2422   1.406       .  A
C2418      C2419   1.397       .  A
C2418      H2429   1.082       .  S
C2419      C2420   1.407       .  A
C2419      H2430   1.083       .  S
C2420      C2421   1.406       .  A
C2421      C2422   1.404       .  A
C2421      H2431   1.083       .  S
C2422      H2432   1.083       .  S
C2433      C2434   1.404       .  A
C2433      C2438   1.407       .  A
C2434      C2435   1.394       .  A
C2434      H2447   1.083       .  S
C2435      C2436   1.403       .  A
C2435      H2448   1.083       .  S
C2436      C2437   1.412       .  A
C2436      C2439   1.495       .  S
C2437      C2438   1.408       .  A
C2437      H2449   1.080       .  S
C2438      H2450   1.083       .  S
C2439      C2440   1.350       .  D
C2439      H2451   1.084       .  S
C2440      C2441   1.496       .  S
C2440      H2452   1.083       .  S
C2441      C2442   1.405       .  A
C2441      C2446   1.410       .  A
C2442      C2443   1.402       .  A
C2442      H2453   1.083       .  S
C2443      C2444   1.407       .  A
C2443      H2454   1.083       .  S
C2444      C2445   1.405       .  A
C2445      C2446   1.400       .  A
C2445      H2455   1.083       .  S
C2446      H2456   1.081       .  S
C2457      C2458   1.406       .  A
C2457      C2462   1.402       .  A
C2458      C2459   1.398       .  A
C2458      H2471   1.083       .  S
C2459      C2460   1.402       .  A
C2459      H2472   1.083       .  S
C2460      C2461   1.406       .  A
C2460      C2463   1.479       .  S
C2461      C2462   1.394       .  A
C2461      H2473   1.083       .  S
C2462      H2474   1.083       .  S
C2463      C2464   1.343       .  D
C2463      H2475   1.086       .  S
C2464      C2465   1.477       .  S
C2464      H2476   1.087       .  S
C2465      C2466   1.399       .  A
C2465      C2470   1.407       .  A
C2466      C2467   1.391       .  A
C2466      H2477   1.084       .  S
C2467      C2468   1.405       .  A
C2467      H2478   1.083       .  S
C2468      C2469   1.404       .  A
C2469      C2470   1.400       .  A
C2469      H2479   1.083       .  S
C2470      H2480   1.082       .  S
C2481      C2482   1.406       .  A
C2481      C2486   1.405       .  A
C2482      C2483   1.401       .  A
C2482      H2495   1.084       .  S
C2483      C2484   1.405       .  A
C2483      H2496   1.083       .  S
C2484      C2485   1.410       .  A
C2484      C2487   1.494       .  S
C2485      C2486   1.401       .  A
C2485      H2497   1.082       .  S
C2486      H2498   1.083       .  S
C2487      C2488   1.349       .  D
C2487      H2499   1.085       .  S
C2488      C2489   1.494       .  S
C2488      H2500   1.085       .  S
C2489      C2490   1.404       .  A
C2489      C2494   1.410       .  A
C2490      C2491   1.399       .  A
C2490      H2501   1.083       .  S
C2491      C2492   1.407       .  A
C2491      H2502   1.083       .  S
C2492      C2493   1.406       .  A
C2493      C2494   1.403       .  A
C2493      H2503   1.083       .  S
C2494      H2504   1.081       .  S
C2505      C2506   1.404       .  A
C2505      C2510   1.405       .  A
C2506      C2507   1.394       .  A
C2506      H2519   1.083       .  S
C2507      C2508   1.403       .  A
C2507      H2520   1.084       .  S
C2508      C2509   1.413       .  A
C2508      C2511   1.494       .  S
C2509      C2510   1.407       .  A
C2509      H2521   1.080       .  S
C2510      H2522   1.083       .  S
C2511      C2512   1.349       .  D
C2511      H2523   1.086       .  S
C2512      C2513   1.493       .  S
C2512      H2524   1.083       .  S
C2513      C2514   1.403       .  A
C2513      C2518   1.409       .  A
C2514      C2515   1.401       .  A
C2514      H2525   1.083       .  S
C2515      C2516   1.408       .  A
C2515      H2526   1.083       .  S
C2516      C2517   1.405       .  A
C2517      C2518   1.400       .  A
C2517      H2527   1.083       .  S
C2518      H2528   1.082       .  S
C2529      C2530   1.406       .  A
C2529      C2534   1.403       .  A
C2530      C2531   1.405       .  A
C2530      H2543   1.083       .  S
C2531      C2532   1.409       .  A
C2531      H2544   1.081       .  S
C2532      C2533   1.402       .  A
C2532      C2535   1.486       .  S
C2533      C2534   1.393       .  A
C2533      H2545   1.084       .  S
C2534      H2546   1.083       .  S
C2535      C2536   1.348       .  D
C2535      H2547   1.086       .  S
C2536      C2537   1.489       .  S
C2536      H2548   1.085       .  S
C2537      C2538   1.405       .  A
C2537      C2542   1.408       .  A
C2538      C2539   1.404       .  A
C2538      H2549   1.083       .  S
C2539      C2540   1.407       .  A
C2539      H2550   1.083       .  S
C2540      C2541   1.404       .  A
C2541      C2542   1.395       .  A
C2541      H2551   1.083       .  S
C2542      H2552   1.082       .  S
C2553      C2554   1.404       .  A
C2553      C2558   1.408   1_554  A
C2554      C2555   1.396       .  A
C2554      H2567   1.083       .  S
C2555      C2556   1.404       .  A
C2555      H2568   1.083       .  S
C2556      C2557   1.410   1_554  A
C2556      C2559   1.494   1_554  S
C2557      C2558   1.408       .  A
C2557      H2569   1.081       .  S
C2558      H2570   1.083       .  S
C2559      C2560   1.352       .  D
C2559      H2571   1.085   1_556  S
C2560      C2561   1.498       .  S
C2560      H2572   1.085       .  S
C2561      C2562   1.407       .  A
C2561      C2566   1.408       .  A
C2562      C2563   1.407       .  A
C2562      H2573   1.083       .  S
C2563      C2564   1.407       .  A
C2563      H2574   1.083       .  S
C2564      C2565   1.407       .  A
C2565      C2566   1.398       .  A
C2565      H2575   1.083       .  S
C2566      H2576   1.082       .  S
C2577      C2578   1.405       .  A
C2577      C2582   1.406       .  A
C2578      C2579   1.394       .  A
C2578      H2591   1.083       .  S
C2579      C2580   1.400       .  A
C2579      H2592   1.083       .  S
C2580      C2581   1.406       .  A
C2580      C2583   1.478       .  S
C2581      C2582   1.400       .  A
C2581      H2593   1.083       .  S
C2582      H2594   1.083       .  S
C2583      C2584   1.343       .  D
C2583      H2595   1.087       .  S
C2584      C2585   1.479       .  S
C2584      H2596   1.086       .  S
C2585      C2586   1.401       .  A
C2585      C2590   1.405       .  A
C2586      C2587   1.398       .  A
C2586      H2597   1.083       .  S
C2587      C2588   1.406       .  A
C2587      H2598   1.083       .  S
C2588      C2589   1.405       .  A
C2589      C2590   1.396       .  A
C2589      H2599   1.083       .  S
C2590      H2600   1.083       .  S
C2601      C2602   1.405       .  A
C2601      C2606   1.405       .  A
C2602      C2603   1.402       .  A
C2602      H2615   1.083       .  S
C2603      C2604   1.406       .  A
C2603      H2616   1.083       .  S
C2604      C2605   1.407       .  A
C2604      C2607   1.490       .  S
C2605      C2606   1.396       .  A
C2605      H2617   1.081       .  S
C2606      H2618   1.083       .  S
C2607      C2608   1.351       .  D
C2607      H2619   1.085       .  S
C2608      C2609   1.486       .  S
C2608      H2620   1.084       .  S
C2609      C2610   1.404       .  A
C2609      C2614   1.406       .  A
C2610      C2611   1.398       .  A
C2610      H2621   1.083       .  S
C2611      C2612   1.405       .  A
C2611      H2622   1.083       .  S
C2612      C2613   1.407       .  A
C2613      C2614   1.399       .  A
C2613      H2623   1.083       .  S
C2614      H2624   1.082       .  S
C2625      C2626   1.404       .  A
C2625      C2630   1.407       .  A
C2626      C2627   1.401       .  A
C2626      H2639   1.083       .  S
C2627      C2628   1.406       .  A
C2627      H2640   1.083       .  S
C2628      C2629   1.407       .  A
C2628      C2631   1.491       .  S
C2629      C2630   1.398       .  A
C2629      H2641   1.081       .  S
C2630      H2642   1.083       .  S
C2631      C2632   1.351       .  D
C2631      H2643   1.084       .  S
C2632      C2633   1.491       .  S
C2632      H2644   1.084       .  S
C2633      C2634   1.405       .  A
C2633      C2638   1.409       .  A
C2634      C2635   1.399       .  A
C2634      H2645   1.083       .  S
C2635      C2636   1.405       .  A
C2635      H2646   1.083       .  S
C2636      C2637   1.406       .  A
C2637      C2638   1.400       .  A
C2637      H2647   1.083       .  S
C2638      H2648   1.081       .  S
C2649      C2650   1.404       .  A
C2649      C2654   1.406       .  A
C2650      C2651   1.397       .  A
C2650      H2663   1.083       .  S
C2651      C2652   1.403       .  A
C2651      H2664   1.083       .  S
C2652      C2653   1.406       .  A
C2652      C2655   1.484       .  S
C2653      C2654   1.400       .  A
C2653      H2665   1.083       .  S
C2654      H2666   1.083       .  S
C2655      C2656   1.349       .  D
C2655      H2667   1.086       .  S
C2656      C2657   1.485       .  S
C2656      H2668   1.086       .  S
C2657      C2658   1.404       .  A
C2657      C2662   1.406       .  A
C2658      C2659   1.398       .  A
C2658      H2669   1.083       .  S
C2659      C2660   1.405       .  A
C2659      H2670   1.083       .  S
C2660      C2661   1.406       .  A
C2661      C2662   1.399       .  A
C2661      H2671   1.083       .  S
C2662      H2672   1.082       .  S
C2673      C2674   1.405       .  A
C2673      C2678   1.404       .  A
C2674      C2675   1.396       .  A
C2674      H2687   1.084       .  S
C2675      C2676   1.401       .  A
C2675      H2688   1.083       .  S
C2676      C2677   1.407       .  A
C2676      C2679   1.481       .  S
C2677      C2678   1.399       .  A
C2677      H2689   1.083       .  S
C2678      H2690   1.083       .  S
C2679      C2680   1.347       .  D
C2679      H2691   1.085       .  S
C2680      C2681   1.484       .  S
C2680      H2692   1.086       .  S
C2681      C2682   1.402       .  A
C2681      C2686   1.408       .  A
C2682      C2683   1.397       .  A
C2682      H2693   1.083       .  S
C2683      C2684   1.405       .  A
C2683      H2694   1.083       .  S
C2684      C2685   1.405       .  A
C2685      C2686   1.398       .  A
C2685      H2695   1.083       .  S
C2686      H2696   1.082       .  S
C2697      C2698   1.405       .  A
C2697      C2702   1.408       .  A
C2698      C2699   1.403       .  A
C2698      H2711   1.083       .  S
C2699      C2700   1.408       .  A
C2699      H2712   1.083       .  S
C2700      C2701   1.408       .  A
C2700      C2703   1.496       .  S
C2701      C2702   1.400       .  A
C2701      H2713   1.080       .  S
C2702      H2714   1.083       .  S
C2703      C2704   1.354   1_554  D
C2703      H2715   1.085       .  S
C2704      C2705   1.494       .  S
C2704      H2716   1.083       .  S
C2705      C2706   1.407       .  A
C2705      C2710   1.406       .  A
C2706      C2707   1.404       .  A
C2706      H2717   1.083       .  S
C2707      C2708   1.406       .  A
C2707      H2718   1.083       .  S
C2708      C2709   1.408       .  A
C2709      C2710   1.398       .  A
C2709      H2719   1.083       .  S
C2710      H2720   1.082       .  S
C2721      C2722   1.405       .  A
C2721      C2726   1.407       .  A
C2722      C2723   1.390       .  A
C2722      H2735   1.083       .  S
C2723      C2724   1.402       .  A
C2723      H2736   1.084       .  S
C2724      C2725   1.411       .  A
C2724      C2727   1.489       .  S
C2725      C2726   1.407       .  A
C2725      H2737   1.080       .  S
C2726      H2738   1.083       .  S
C2727      C2728   1.349       .  D
C2727      H2739   1.085       .  S
C2728      C2729   1.491       .  S
C2728      H2740   1.083       .  S
C2729      C2730   1.406       .  A
C2729      C2734   1.408       .  A
C2730      C2731   1.403       .  A
C2730      H2741   1.083       .  S
C2731      C2732   1.405       .  A
C2731      H2742   1.083       .  S
C2732      C2733   1.403       .  A
C2733      C2734   1.394       .  A
C2733      H2743   1.083       .  S
C2734      H2744   1.082       .  S
C2745      C2746   1.406       .  A
C2745      C2750   1.407       .  A
C2746      C2747   1.395       .  A
C2746      H2759   1.083       .  S
C2747      C2748   1.402       .  A
C2747      H2760   1.084       .  S
C2748      C2749   1.411       .  A
C2748      C2751   1.491       .  S
C2749      C2750   1.406       .  A
C2749      H2761   1.081       .  S
C2750      H2762   1.083       .  S
C2751      C2752   1.350       .  D
C2751      H2763   1.084       .  S
C2752      C2753   1.495       .  S
C2752      H2764   1.084       .  S
C2753      C2754   1.406       .  A
C2753      C2758   1.409       .  A
C2754      C2755   1.403       .  A
C2754      H2765   1.083       .  S
C2755      C2756   1.406       .  A
C2755      H2766   1.083       .  S
C2756      C2757   1.406       .  A
C2757      C2758   1.398       .  A
C2757      H2767   1.083       .  S
C2758      H2768   1.081       .  S
C2769      C2770   1.404       .  A
C2769      C2774   1.405       .  A
C2770      C2771   1.400       .  A
C2770      H2783   1.083       .  S
C2771      C2772   1.404       .  A
C2771      H2784   1.083       .  S
C2772      C2773   1.405       .  A
C2772      C2775   1.483       .  S
C2773      C2774   1.396       .  A
C2773      H2785   1.083       .  S
C2774      H2786   1.084       .  S
C2775      C2776   1.350       .  D
C2775      H2787   1.084       .  S
C2776      C2777   1.486       .  S
C2776      H2788   1.086       .  S
C2777      C2778   1.404       .  A
C2777      C2782   1.407       .  A
C2778      C2779   1.398       .  A
C2778      H2789   1.084       .  S
C2779      C2780   1.406       .  A
C2779      H2790   1.083       .  S
C2780      C2781   1.405       .  A
C2781      C2782   1.397       .  A
C2781      H2791   1.083       .  S
C2782      H2792   1.081       .  S
C2793      C2794   1.404       .  A
C2793      C2798   1.405       .  A
C2794      C2795   1.400       .  A
C2794      H2807   1.083       .  S
C2795      C2796   1.404       .  A
C2795      H2808   1.083       .  S
C2796      C2797   1.408       .  A
C2796      C2799   1.488       .  S
C2797      C2798   1.399       .  A
C2797      H2809   1.082       .  S
C2798      H2810   1.083       .  S
C2799      C2800   1.349       .  D
C2799      H2811   1.086       .  S
C2800      C2801   1.486       .  S
C2800      H2812   1.085       .  S
C2801      C2802   1.403       .  A
C2801      C2806   1.408       .  A
C2802      C2803   1.398       .  A
C2802      H2813   1.083       .  S
C2803      C2804   1.404       .  A
C2803      H2814   1.083       .  S
C2804      C2805   1.405       .  A
C2805      C2806   1.400       .  A
C2805      H2815   1.084       .  S
C2806      H2816   1.082       .  S
C2817      C2818   1.405       .  A
C2817      C2822   1.407       .  A
C2818      C2819   1.397       .  A
C2818      H2831   1.083       .  S
C2819      C2820   1.403       .  A
C2819      H2832   1.083       .  S
C2820      C2821   1.409       .  A
C2820      C2823   1.490       .  S
C2821      C2822   1.402       .  A
C2821      H2833   1.081       .  S
C2822      H2834   1.083       .  S
C2823      C2824   1.349       .  D
C2823      H2835   1.085       .  S
C2824      C2825   1.489       .  S
C2824      H2836   1.084       .  S
C2825      C2826   1.403       .  A
C2825      C2830   1.408       .  A
C2826      C2827   1.399       .  A
C2826      H2837   1.083       .  S
C2827      C2828   1.406       .  A
C2827      H2838   1.083       .  S
C2828      C2829   1.405       .  A
C2829      C2830   1.400       .  A
C2829      H2839   1.083       .  S
C2830      H2840   1.082       .  S
C2841      C2842   1.405       .  A
C2841      C2846   1.406       .  A
C2842      C2843   1.396       .  A
C2842      H2855   1.083       .  S
C2843      C2844   1.404       .  A
C2843      H2856   1.083       .  S
C2844      C2845   1.412       .  A
C2844      C2847   1.496       .  S
C2845      C2846   1.406       .  A
C2845      H2857   1.080       .  S
C2846      H2858   1.083       .  S
C2847      C2848   1.351       .  D
C2847      H2859   1.085       .  S
C2848      C2849   1.495       .  S
C2848      H2860   1.083       .  S
C2849      C2850   1.406       .  A
C2849      C2854   1.408       .  A
C2850      C2851   1.404       .  A
C2850      H2861   1.083       .  S
C2851      C2852   1.406       .  A
C2851      H2862   1.083       .  S
C2852      C2853   1.407       .  A
C2853      C2854   1.398       .  A
C2853      H2863   1.083       .  S
C2854      H2864   1.081       .  S
C2865      C2866   1.405       .  A
C2865      C2870   1.406       .  A
C2866      C2867   1.396       .  A
C2866      H2879   1.083       .  S
C2867      C2868   1.402       .  A
C2867      H2880   1.084       .  S
C2868      C2869   1.408       .  A
C2868      C2871   1.485       .  S
C2869      C2870   1.401       .  A
C2869      H2881   1.082       .  S
C2870      H2882   1.083       .  S
C2871      C2872   1.347       .  D
C2871      H2883   1.086       .  S
C2872      C2873   1.486       .  S
C2872      H2884   1.086       .  S
C2873      C2874   1.404       .  A
C2873      C2878   1.407       .  A
C2874      C2875   1.399       .  A
C2874      H2885   1.083       .  S
C2875      C2876   1.405       .  A
C2875      H2886   1.083       .  S
C2876      C2877   1.407       .  A
C2877      C2878   1.398       .  A
C2877      H2887   1.083       .  S
C2878      H2888   1.082       .  S
C2889      C2890   1.405       .  A
C2889      C2894   1.405       .  A
C2890      C2891   1.398       .  A
C2890      H2903   1.083       .  S
C2891      C2892   1.403       .  A
C2891      H2904   1.083       .  S
C2892      C2893   1.409       .  A
C2892      C2895   1.486       .  S
C2893      C2894   1.399       .  A
C2893      H2905   1.082       .  S
C2894      H2906   1.083       .  S
C2895      C2896   1.345       .  D
C2895      H2907   1.086       .  S
C2896      C2897   1.486       .  S
C2896      H2908   1.085       .  S
C2897      C2898   1.403       .  A
C2897      C2902   1.408       .  A
C2898      C2899   1.400       .  A
C2898      H2909   1.083       .  S
C2899      C2900   1.407       .  A
C2899      H2910   1.083       .  S
C2900      C2901   1.405       .  A
C2901      C2902   1.397       .  A
C2901      H2911   1.083       .  S
C2902      H2912   1.082       .  S
C2913      C2914   1.405   1_556  A
C2913      C2918   1.408       .  A
C2914      C2915   1.401       .  A
C2914      H2927   1.083       .  S
C2915      C2916   1.405       .  A
C2915      H2928   1.083       .  S
C2916      C2917   1.408   1_554  A
C2916      C2919   1.494       .  S
C2917      C2918   1.401       .  A
C2917      H2929   1.081       .  S
C2918      H2930   1.083       .  S
C2919      C2920   1.351   1_554  D
C2919      H2931   1.084       .  S
C2920      C2921   1.495       .  S
C2920      H2932   1.085       .  S
C2921      C2922   1.405       .  A
C2921      C2926   1.410       .  A
C2922      C2923   1.400       .  A
C2922      H2933   1.083       .  S
C2923      C2924   1.407       .  A
C2923      H2934   1.083       .  S
C2924      C2925   1.406       .  A
C2925      C2926   1.403       .  A
C2925      H2935   1.083   1_556  S
C2926      H2936   1.081       .  S
C2937      C2938   1.407       .  A
C2937      C2942   1.405       .  A
C2938      C2939   1.402       .  A
C2938      H2951   1.083       .  S
C2939      C2940   1.404       .  A
C2939      H2952   1.083       .  S
C2940      C2941   1.407       .  A
C2940      C2943   1.488       .  S
C2941      C2942   1.395       .  A
C2941      H2953   1.082       .  S
C2942      H2954   1.083       .  S
C2943      C2944   1.348       .  D
C2943      H2955   1.084       .  S
C2944      C2945   1.487       .  S
C2944      H2956   1.086       .  S
C2945      C2946   1.402       .  A
C2945      C2950   1.410       .  A
C2946      C2947   1.393       .  A
C2946      H2957   1.084       .  S
C2947      C2948   1.404       .  A
C2947      H2958   1.083       .  S
C2948      C2949   1.405       .  A
C2949      C2950   1.404       .  A
C2949      H2959   1.083       .  S
C2950      H2960   1.081       .  S
C2961      C2962   1.406       .  A
C2961      C2966   1.405       .  A
C2962      C2963   1.398       .  A
C2962      H2975   1.083       .  S
C2963      C2964   1.403       .  A
C2963      H2976   1.083       .  S
C2964      C2965   1.410       .  A
C2964      C2967   1.490       .  S
C2965      C2966   1.401       .  A
C2965      H2977   1.081       .  S
C2966      H2978   1.083       .  S
C2967      C2968   1.347       .  D
C2967      H2979   1.084       .  S
C2968      C2969   1.491       .  S
C2968      H2980   1.085       .  S
C2969      C2970   1.402       .  A
C2969      C2974   1.412       .  A
C2970      C2971   1.395       .  A
C2970      H2981   1.083       .  S
C2971      C2972   1.404       .  A
C2971      H2982   1.083       .  S
C2972      C2973   1.404       .  A
C2973      C2974   1.404       .  A
C2973      H2983   1.083       .  S
C2974      H2984   1.081       .  S
C2985      C2986   1.406       .  A
C2985      C2990   1.406       .  A
C2986      C2987   1.398       .  A
C2986      H2999   1.083       .  S
C2987      C2988   1.404       .  A
C2987      H3000   1.084       .  S
C2988      C2989   1.411       .  A
C2988      C2991   1.495       .  S
C2989      C2990   1.404       .  A
C2989      H3001   1.080       .  S
C2990      H3002   1.083       .  S
C2991      C2992   1.350       .  D
C2991      H3003   1.085       .  S
C2992      C2993   1.494       .  S
C2992      H3004   1.084       .  S
C2993      C2994   1.405       .  A
C2993      C2998   1.409       .  A
C2994      C2995   1.401       .  A
C2994      H3005   1.083       .  S
C2995      C2996   1.405       .  A
C2995      H3006   1.083       .  S
C2996      C2997   1.406       .  A
C2997      C2998   1.401       .  A
C2997      H3007   1.083       .  S
C2998      H3008   1.081       .  S
