geometry optimzed in LAMMPS
_audit_creation_date              2020-12-01 
_audit_creation_method            'lammps2cif' 
_symmetry_space_group_name_H-M    'P1' 
_symmetry_Int_Tables_number       1 
_symmetry_cell_setting            triclinic 
loop_ 
_symmetry_equiv_pos_as_xyz 
  x,y,z 
_cell_length_a                    43.64599213 
_cell_length_b                    46.12337240309623 
_cell_length_c                    24.79306576651004 
_cell_angle_alpha                 89.2338680313421 
_cell_angle_beta                  90.33627207839972 
_cell_angle_gamma                 88.17915658500159 
loop_ 
_atom_site_label 
_atom_site_type_symbol 
_atom_site_fract_x 
_atom_site_fract_y 
_atom_site_fract_z 
_atom_site_charge 
In1        In  0.41680933  0.23310480  0.90224281     1.36900
C2          C  0.37179035  0.21952537  0.97107555     0.77200
O3          O  0.43866026  0.20351844  0.84215498    -0.61300
O4          O  0.43645905  0.18858846  0.92291636    -0.52200
C5          C  0.39512534  0.26018166  0.81142664     0.69900
O6          O  0.37883962  0.24477898  0.84150686    -0.47000
C7          C  0.45666776  0.26576228  0.95547636     0.74600
O8          O  0.38699942  0.24227469  0.97353041    -0.58900
O9          O  0.46320742  0.24027528  0.94062673    -0.49000
O10         O  0.37882573  0.20363195  0.93190383    -0.55300
C11         C  0.44309667  0.18260234  0.87492241     0.84700
O12         O  0.42230143  0.26214246  0.82794610    -0.57200
O13         O  0.42995327  0.27447369  0.94247253    -0.60500
In14       In  0.05786748  0.36836455  0.17213685     1.36900
C15         C  0.06602944  0.40834051  0.09438139     0.77200
O16         O  0.10668659  0.35384525  0.19112647    -0.61300
O17         O  0.07085262  0.33389607  0.23391868    -0.52200
C18         C  0.53031538  0.39690788  0.25298613     0.69900
O19         O  0.55624816  0.40292190  0.23440762    -0.47000
C20         C  0.52977078  0.33241395  0.10129523     0.74600
O21         O  0.04078631  0.39734975  0.10552406    -0.58900
O22         O  0.06073593  0.33125484  0.11306785    -0.49000
O23         O  0.08790708  0.39982340  0.12491938    -0.55300
C24         C  0.09931937  0.33557551  0.22684560     0.84700
O25         O  0.51769943  0.37642513  0.22913703    -0.57200
O26         O  0.51504199  0.35078193  0.12906284    -0.60500
In27       In  0.28630446  0.30103925  0.16263808     1.36900
C28         C  0.30132846  0.25301322  0.11283988     0.77200
O29         O  0.23847507  0.28802756  0.15631658    -0.61300
O30         O  0.25769303  0.31695311  0.09655822    -0.52200
C31         C  0.26402579  0.34038137  0.22712609     0.69900
O32         O  0.26506237  0.31359429  0.24128002    -0.47000
C33         C  0.34137120  0.31757176  0.18183781     0.74600
O34         O  0.29569151  0.25239403  0.16334250    -0.58900
O35         O  0.32699654  0.32580414  0.13933463    -0.49000
O36         O  0.29952080  0.27784337  0.09035117    -0.55300
C37         C  0.23456957  0.30376792  0.11434244     0.84700
O38         O  0.27436155  0.34618530  0.18067905    -0.57200
O39         O  0.32758388  0.30021712  0.21284767    -0.60500
In40       In  0.18798271  0.41832451  0.92095757     1.36900
C41         C  0.13435200  0.43744794  0.95645784     0.77200
O42         O  0.16918719  0.37484745  0.93266224    -0.61300
O43         O  0.19776772  0.39353236  0.99402876    -0.52200
C44         C  0.22405773  0.39047384  0.85225685     0.69900
O45         O  0.19684946  0.39870859  0.83905422    -0.47000
C46         C  0.21552977  0.46664196  0.90361723     0.74600
O47         O  0.13837453  0.42910509  0.90809006    -0.58900
O48         O  0.22102144  0.45200281  0.94650917    -0.49000
O49         O  0.15828651  0.43761074  0.98536653    -0.55300
C50         C  0.18164389  0.37257875  0.97889128     0.84700
O51         O  0.23185883  0.39660161  0.89994739    -0.57200
O52         O  0.19486469  0.45719767  0.87298347    -0.60500
In53       In  0.34505280  0.09039896  0.12826821     1.36900
C54         C  0.33432112  0.14609035  0.09280844     0.77200
O55         O  0.38462071  0.08074303  0.07712282    -0.61300
O56         O  0.34204516  0.06168632  0.05753448    -0.52200
C57         C  0.38213390  0.06297904  0.20269066     0.69900
O58         O  0.38748721  0.08820468  0.18465085    -0.47000
C59         C  0.29266034  0.07466353  0.16894309     0.74600
O60         O  0.34079236  0.13955533  0.14144407    -0.58900
O61         O  0.30039620  0.06730681  0.12196569    -0.49000
O62         O  0.33422362  0.12446199  0.06255392    -0.55300
C63         C  0.37015239  0.06390345  0.04703124     0.84700
O64         O  0.35825701  0.05264799  0.18317431    -0.57200
O65         O  0.31051436  0.09165818  0.19204462    -0.60500
In66       In  0.48242249  0.96627846  0.85010483     1.36900
C67         C  0.02382583  0.95300557  0.92412897     0.77200
O68         O  0.44862344  0.96873857  0.91629765    -0.61300
O69         O  0.44690298  0.00170208  0.85504447    -0.52200
C70         C  0.51794197  0.99784967  0.78971248     0.69900
O71         O  0.52492695  0.97172085  0.80125711    -0.47000
C72         C  0.46145580  0.42964735  0.78517936     0.74600
O73         O  0.00950481  0.97685857  0.91687598    -0.58900
O74         O  0.46934678  0.42323858  0.83300787    -0.49000
O75         O  0.01716575  0.44021975  0.89907947    -0.55300
C76         C  0.43759386  0.99287736  0.90002689     0.84700
O77         O  0.49266828  0.00722009  0.80771601    -0.57200
O78         O  0.96752617  0.45202867  0.77158415    -0.60500
In79       In  0.09400770  0.03896416  0.14421794     1.36900
C80         C  0.08667056  0.50346330  0.07864851     0.77200
O81         O  0.04465312  0.04521445  0.17246458    -0.61300
O82         O  0.07638219  0.07696941  0.19298884    -0.52200
C83         C  0.12145121  0.01516118  0.23106198     0.69900
O84         O  0.09486324  0.00860548  0.21624213    -0.47000
C85         C  0.12431243  0.07496745  0.07888605     0.74600
O86         O  0.11119594  0.50367975  0.10558999    -0.58900
O87         O  0.09592479  0.07123118  0.07489868    -0.49000
O88         O  0.06852560  0.52464444  0.08752557    -0.55300
C89         C  0.04946234  0.06823290  0.19754177     0.84700
O90         O  0.13424576  0.03331712  0.20085177    -0.57200
O91         O  0.13694849  0.06091629  0.11738243    -0.60500
In92       In  0.23509381  0.17661868  0.87506209     1.36900
C93         C  0.27380473  0.19177771  0.95484692     0.77200
O94         O  0.22699120  0.22428701  0.85329606    -0.61300
O95         O  0.19585516  0.19409780  0.82396748    -0.52200
C96         C  0.25989845  0.15260932  0.78608961     0.69900
O97         O  0.26825701  0.17638927  0.80475928    -0.47000
C98         C  0.19869572  0.14408341  0.93630423     0.74600
O99         O  0.28105121  0.17311578  0.91998452    -0.58900
O100        O  0.18866453  0.16539255  0.90850926    -0.49000
O101        O  0.24752770  0.20346499  0.94730208    -0.55300
C102        C  0.20351734  0.22018567  0.82458598     0.84700
O103        O  0.24004492  0.14032387  0.81430021    -0.57200
O104        O  0.22693667  0.13854201  0.93075997    -0.60500
C105        C  0.04922731  0.45705556  0.97099202     0.86100
C106        C  0.04480872  0.43291612  0.01258337    -0.54100
C107        C  0.06856070  0.42913966  0.04849123     0.09000
C108        C  0.09519540  0.44998463  0.03802141     0.20000
C109        C  0.05533473  0.48403295  0.00439882    -0.54900
C110        C  0.07926030  0.48047929  0.03994107     0.09100
C111        C  0.07946481  0.44953701  0.94340004    -0.54400
C112        C  0.10370621  0.44578959  0.97759627     0.09700
H113        H  0.02417167  0.42036345  0.01420902     0.14200
H114        H  0.11472137  0.44687767  0.06665509     0.00000
H115        H  0.04085165  0.99639049  0.99385025     0.14500
H116        H  0.08144956  0.44725133  0.89996097     0.14300
C117        C  0.31024777  0.22717735  0.07913473     0.86100
C118        C  0.33885242  0.23379180  0.04671750    -0.54100
C119        C  0.34732459  0.21323578  0.01056549     0.09000
C120        C  0.32671902  0.18639331  0.01222986     0.20000
C121        C  0.28569460  0.22065115  0.03660836    -0.54900
C122        C  0.29407662  0.19948869  0.00100445     0.09100
C123        C  0.31783349  0.19803906  0.10748882    -0.54400
C124        C  0.32662467  0.17633582  0.07294366     0.09700
H125        H  0.35056246  0.25415505  0.05017412     0.14200
H126        H  0.33383730  0.16915670  0.98364041     0.00000
H127        H  0.26380906  0.23251568  0.03406475     0.14500
H128        H  0.31626712  0.19481915  0.15083637     0.14300
In129      In  0.06485134  0.04366163  0.69024604     1.36900
C130        C  0.07670901  0.50676479  0.61234288     0.77200
O131        O  0.53361154  0.08297478  0.69133927    -0.61300
O132        O  0.06424233  0.08176076  0.63331512    -0.52200
C133        C  0.53738797  0.01622160  0.75766304     0.69900
O134        O  0.56445087  0.00881004  0.74498772    -0.47000
C135        C  0.11022020  0.06391008  0.75013479     0.74600
O136        O  0.05238231  0.52187040  0.61738165    -0.58900
O137        O  0.08362860  0.06016508  0.76766757    -0.49000
O138        O  0.09819773  0.51332797  0.64369820    -0.55300
C139        C  0.54337482  0.09421944  0.64852198     0.84700
O140        O  0.52804857  0.04081868  0.74057853    -0.57200
O141        O  0.11328180  0.05889061  0.70058546    -0.60500
In142      In  0.44330933  0.17824019  0.40816155     1.36900
C143        C  0.39111620  0.19530556  0.45722630     0.77200
O144        O  0.44938929  0.14551395  0.47263590    -0.61300
O145        O  0.47642119  0.18332825  0.47573857    -0.52200
C146        C  0.47111321  0.13877412  0.34601661     0.69900
O147        O  0.44199821  0.14185549  0.34606711    -0.47000
C148        C  0.45586033  0.21961271  0.33874834     0.74600
O149        O  0.39237042  0.17217646  0.42993308    -0.58900
O150        O  0.46939432  0.21738787  0.38394471    -0.49000
O151        O  0.41523068  0.20965973  0.45508160    -0.55300
C152        C  0.46998126  0.15910140  0.49671926     0.84700
O153        O  0.48453886  0.15497972  0.37843947    -0.57200
O154        O  0.43467746  0.20196045  0.33174655    -0.60500
In155      In  0.36037291  0.30136739  0.67178688     1.36900
C156        C  0.34780076  0.25993188  0.60058801     0.77200
O157        O  0.31025289  0.31359028  0.68368149    -0.61300
O158        O  0.34358597  0.33193640  0.73481332    -0.52200
C159        C  0.38334808  0.27452652  0.76124497     0.69900
O160        O  0.35725110  0.26967071  0.74194542    -0.47000
C161        C  0.39077784  0.33883635  0.60833875     0.74600
O162        O  0.37051520  0.25876679  0.63214701    -0.58900
O163        O  0.36569895  0.34538147  0.63045597    -0.49000
O164        O  0.33075683  0.28234082  0.60570946    -0.55300
C165        C  0.31554968  0.32955634  0.72356504     0.84700
O166        O  0.39825888  0.29268338  0.73415794    -0.57200
O167        O  0.40128727  0.31399079  0.62158599    -0.60500
In168      In  0.99064017  0.43774003  0.38520371     1.36900
C169        C  0.03318681  0.44833123  0.46056371     0.77200
O170        O  0.98684575  0.48201166  0.34317525    -0.61300
O171        O  0.44728721  0.46226318  0.35026053    -0.52200
C172        C  0.51608261  0.41232565  0.29900070     0.69900
O173        O  0.52925560  0.43210511  0.32401799    -0.47000
C174        C  0.45516614  0.40796544  0.44856563     0.74600
O175        O  0.03515938  0.42672641  0.43009963    -0.58900
O176        O  0.45614005  0.43522101  0.45087351    -0.49000
O177        O  0.01010338  0.46483649  0.45131795    -0.55300
C178        C  0.45979505  0.48401296  0.32978104     0.84700
O179        O  0.48986252  0.40671680  0.31694052    -0.57200
O180        O  0.47172856  0.39738793  0.41171167    -0.60500
In181      In  0.12748569  0.35057558  0.61628768     1.36900
C182        C  0.10642777  0.40260642  0.58356820     0.77200
O183        O  0.17551801  0.36513729  0.61605009    -0.61300
O184        O  0.15868699  0.33951399  0.55071377    -0.52200
C185        C  0.14871013  0.31330919  0.69123258     0.69900
O186        O  0.14369212  0.34003074  0.70192736    -0.47000
C187        C  0.07551330  0.32436688  0.61790835     0.74600
O188        O  0.11378199  0.39700223  0.63249953    -0.58900
O189        O  0.09336388  0.32149037  0.57793024    -0.49000
O190        O  0.10974663  0.38150056  0.55196176    -0.55300
C191        C  0.18117169  0.35147251  0.57314150     0.84700
O192        O  0.14304538  0.30665410  0.64293833    -0.57200
O193        O  0.08411324  0.34138115  0.65433674    -0.60500
In194      In  0.23436937  0.23516146  0.39670221     1.36900
C195        C  0.28336196  0.21811271  0.45201422     0.77200
O196        O  0.25352182  0.27816403  0.40832200    -0.61300
O197        O  0.22324417  0.25948306  0.46821928    -0.52200
C198        C  0.19164388  0.26440050  0.34110277     0.69900
O199        O  0.21929480  0.26179529  0.32483683    -0.47000
C200        C  0.21973439  0.18737777  0.35023237     0.74600
O201        O  0.28534038  0.22821352  0.40399138    -0.58900
O202        O  0.20824958  0.19457819  0.39546520    -0.49000
O203        O  0.25634790  0.21344676  0.46834718    -0.55300
C204        C  0.23992018  0.28042871  0.45354679     0.84700
O205        O  0.18626511  0.25199272  0.38608404    -0.57200
O206        O  0.23983849  0.20413644  0.33170080    -0.60500
In207      In  0.29884717  0.11478771  0.64936625     1.36900
C208        C  0.32030827  0.15757250  0.58692750     0.77200
O209        O  0.34595683  0.09460535  0.66316739    -0.61300
O210        O  0.31019906  0.08210697  0.71501968    -0.52200
C211        C  0.27244509  0.14014778  0.73581251     0.69900
O212        O  0.29364044  0.15151274  0.70940943    -0.47000
C213        C  0.26860231  0.08235812  0.57937854     0.74600
O214        O  0.29329601  0.14893006  0.58247929    -0.58900
O215        O  0.29676517  0.07866554  0.58971187    -0.49000
O216        O  0.33631261  0.14402806  0.62214154    -0.55300
C217        C  0.33845074  0.08097583  0.70529041     0.84700
O218        O  0.26327656  0.11692490  0.71600611    -0.57200
O219        O  0.25583096  0.10249241  0.60593036    -0.60500
In220      In  0.16352917  0.98065785  0.36924230     1.36900
C221        C  0.12494471  0.97036043  0.44913039     0.77200
O222        O  0.17361514  0.43383617  0.35283151    -0.61300
O223        O  0.20836733  0.46113355  0.32483293    -0.52200
C224        C  0.13630829  0.00284286  0.27988797     0.69900
O225        O  0.12301970  0.98622775  0.31217421    -0.47000
C226        C  0.19876670  0.01356747  0.43036469     0.74600
O227        O  0.13204541  0.99541263  0.43414067    -0.58900
O228        O  0.17559773  0.02321885  0.40467645    -0.49000
O229        O  0.14026927  0.45092015  0.41971799    -0.55300
C230        C  0.19885069  0.43560633  0.32880748     0.84700
O231        O  0.16337782  0.00819578  0.29313571    -0.57200
O232        O  0.20528009  0.98713124  0.42216755    -0.60500
C233        C  0.08023893  0.48265058  0.57279655     0.86100
C234        C  0.10470698  0.48876520  0.53088919    -0.54100
C235        C  0.10925562  0.46710939  0.49463171     0.09000
C236        C  0.08907230  0.44072700  0.50461646     0.20000
C237        C  0.05158526  0.47608582  0.53935625    -0.54900
C238        C  0.05620988  0.45439683  0.50284344     0.09100
C239        C  0.09020156  0.45383119  0.59967849    -0.54400
C240        C  0.09509597  0.43173076  0.56458040     0.09700
H241        H  0.11169621  0.00737500  0.53158867     0.14200
H242        H  0.09297695  0.42302048  0.47527581     0.00000
H243        H  0.03010216  0.48849346  0.54220735     0.14500
H244        H  0.09362482  0.45131726  0.64295804     0.14300
C245        C  0.34178972  0.23566156  0.56194512     0.86100
C246        C  0.36889115  0.22844289  0.52528131    -0.54100
C247        C  0.36501643  0.20524702  0.49215806     0.09000
C248        C  0.33306171  0.19136356  0.49912925     0.20000
C249        C  0.31438264  0.24005505  0.52334158    -0.54900
C250        C  0.30973162  0.21708864  0.49004961     0.09100
C251        C  0.33587837  0.20756301  0.59245580    -0.54400
C252        C  0.33079308  0.18442739  0.56065717     0.09700
H253        H  0.38985245  0.24052158  0.52651862     0.14200
H254        H  0.32916978  0.17249174  0.47289712     0.00000
H255        H  0.29984538  0.25959684  0.52235123     0.14500
H256        H  0.33435596  0.20637772  0.63620307     0.14300
C257        C  0.21951628  0.06825871  0.53736258    -0.20700
C258        C  0.25160305  0.06470112  0.53981180    -0.07300
C259        C  0.26623954  0.04449519  0.50482104     0.13600
C260        C  0.24836356  0.02807837  0.46986556    -0.20700
C261        C  0.21637373  0.03166254  0.46778627    -0.07300
C262        C  0.20174469  0.05201693  0.50214419     0.13600
C263        C  0.16729192  0.05556453  0.50446055    -0.24100
H264        H  0.20807677  0.08353456  0.56396093     0.14900
H265        H  0.25947933  0.01257215  0.44328759     0.14900
C266        C  0.30060056  0.04018524  0.50315721    -0.24000
H267        H  0.15983086  0.07128646  0.53567734     0.05100
H268        H  0.15730842  0.03437836  0.51459049     0.08300
H269        H  0.15785877  0.06361393  0.46529722     0.08300
H270        H  0.30926585  0.03179352  0.54273115     0.08300
H271        H  0.31134783  0.06105967  0.49308186     0.08300
H272        H  0.30785416  0.02427094  0.47212604     0.05100
C273        C  0.24254522  0.30185002  0.54280091    -0.20700
C274        C  0.24146620  0.30620302  0.48691109    -0.07300
C275        C  0.23254768  0.33364931  0.46569304     0.13600
C276        C  0.21742602  0.35343679  0.49951023    -0.20700
C277        C  0.21213819  0.34590480  0.55342080    -0.07300
C278        C  0.22849287  0.32200921  0.57680951     0.13600
C279        C  0.22695924  0.31472990  0.63606398    -0.24100
H280        H  0.25086105  0.28117494  0.55942626     0.14900
H281        H  0.20562591  0.37241348  0.48208461     0.14900
C282        C  0.23526876  0.34059957  0.40678278    -0.24000
H283        H  0.25050634  0.31105001  0.65233846     0.05100
H284        H  0.21392525  0.29468235  0.64228536     0.08300
H285        H  0.21595217  0.33251333  0.65925941     0.08300
H286        H  0.21999829  0.32667466  0.38315175     0.08300
H287        H  0.25936534  0.33699526  0.39374793     0.08300
H288        H  0.22893016  0.36369617  0.39872816     0.05100
C289        C  0.42354941  0.40375580  0.53239509    -0.20700
C290        C  0.43688904  0.39016284  0.48720152    -0.07300
C291        C  0.43297729  0.35994079  0.48107081     0.13600
C292        C  0.41787219  0.34415663  0.52137482    -0.20700
C293        C  0.40573488  0.35754925  0.56736435    -0.07300
C294        C  0.40762279  0.38797890  0.57192392     0.13600
C295        C  0.39337193  0.40388118  0.61865698    -0.24100
H296        H  0.42582446  0.42690182  0.53723483     0.14900
H297        H  0.41551120  0.32097731  0.51693592     0.14900
C298        C  0.44411715  0.34396098  0.43200891    -0.24000
H299        H  0.39806798  0.42740379  0.61708351     0.05100
H300        H  0.40265746  0.39487930  0.65726539     0.08300
H301        H  0.36814049  0.40160263  0.61782094     0.08300
H302        H  0.97469733  0.34261534  0.43351341     0.08300
H303        H  0.43353981  0.35400687  0.39514586     0.08300
H304        H  0.43797723  0.32077172  0.43316346     0.05100
C305        C  0.51780000  0.15345450  0.54992112    -0.20700
C306        C  0.48692618  0.14641164  0.54315538    -0.07300
C307        C  0.47412069  0.12508524  0.57691827     0.13600
C308        C  0.49317986  0.10985642  0.61351912    -0.20700
C309        C  0.52452709  0.11515789  0.61697762    -0.07300
C310        C  0.53696012  0.13775292  0.58611493     0.13600
C311        C  0.06360220  0.14120957  0.59232932    -0.24100
H312        H  0.52747104  0.17007244  0.52444468     0.14900
H313        H  0.48400685  0.09211177  0.63674707     0.14900
C314        C  0.44067568  0.11772507  0.57416470    -0.24000
H315        H  0.06906884  0.16162420  0.57067534     0.05100
H316        H  0.08004662  0.12409306  0.57851278     0.08300
H317        H  0.06683743  0.14474961  0.63618463     0.08300
H318        H  0.43535176  0.10746926  0.53517348     0.08300
H319        H  0.42612307  0.13768381  0.57920325     0.08300
H320        H  0.43449380  0.10200158  0.60628088     0.05100
C321        C  0.18989930  0.07943838  0.80250998    -0.20700
C322        C  0.19053971  0.06098963  0.84820397    -0.07300
C323        C  0.16241253  0.04981255  0.86705725     0.13600
C324        C  0.13558049  0.05533628  0.83716215    -0.20700
C325        C  0.13624232  0.06927722  0.78678898    -0.07300
C326        C  0.16322358  0.08304511  0.77058337     0.13600
C327        C  0.16434149  0.10063232  0.71906489    -0.24100
H328        H  0.21124123  0.08798574  0.78806131     0.14900
H329        H  0.11462997  0.04534038  0.84999025     0.14900
C330        C  0.16045750  0.02867496  0.91401619    -0.24000
H331        H  0.18677346  0.11107570  0.71425011     0.05100
H332        H  0.14614105  0.11800402  0.71940136     0.08300
H333        H  0.16100866  0.08656609  0.68372104     0.08300
H334        H  0.16803818  0.03865693  0.95193821     0.08300
H335        H  0.17435717  0.00875774  0.90583641     0.08300
H336        H  0.13666608  0.02166678  0.92089688     0.05100
C337        C  0.19318745  0.27292401  0.80477494    -0.20700
C338        C  0.18694360  0.24390050  0.79328658    -0.07300
C339        C  0.16630896  0.23832140  0.75041268     0.13600
C340        C  0.15335915  0.26163381  0.72003466    -0.20700
C341        C  0.16030011  0.29058091  0.73050863    -0.07300
C342        C  0.18003260  0.29622202  0.77428671     0.13600
C343        C  0.18868901  0.32654591  0.78727749    -0.24100
H344        H  0.20905372  0.27743349  0.83708380     0.14900
H345        H  0.13810872  0.25710045  0.68674905     0.14900
C346        C  0.15857713  0.20794112  0.73445821    -0.24000
H347        H  0.19938472  0.33632613  0.75136867     0.05100
H348        H  0.20542535  0.32694099  0.82103479     0.08300
H349        H  0.16805218  0.33963984  0.79885421     0.08300
H350        H  0.14707665  0.19681408  0.76836665     0.08300
H351        H  0.17979050  0.19558590  0.72322743     0.08300
H352        H  0.14275820  0.20784567  0.69920088     0.05100
C353        C  0.21495687  0.12892396  0.24484028    -0.20700
C354        C  0.20361458  0.10594719  0.27580076    -0.07300
C355        C  0.19079164  0.11197481  0.32660164     0.13600
C356        C  0.19480300  0.13939248  0.34921881    -0.20700
C357        C  0.21080714  0.16095322  0.32134232    -0.07300
C358        C  0.21884849  0.15626961  0.26675463     0.13600
C359        C  0.23267305  0.17925674  0.23132455    -0.24100
H360        H  0.22403063  0.12469666  0.20500974     0.14900
H361        H  0.18688623  0.14327088  0.38991891     0.14900
C362        C  0.17446118  0.08940658  0.35861142    -0.24000
H363        H  0.23491918  0.17215671  0.18883559     0.05100
H364        H  0.25603685  0.18411229  0.24575710     0.08300
H365        H  0.21782551  0.19921662  0.23118469     0.08300
H366        H  0.15088999  0.09751823  0.36792593     0.08300
H367        H  0.18707668  0.08496652  0.39691852     0.08300
H368        H  0.17262360  0.06888400  0.33613556     0.05100
C369        C  0.00995569  0.10041065  0.32011124    -0.20700
C370        C  0.48962778  0.11861736  0.31141618    -0.07300
C371        C  0.48079381  0.11012257  0.25907130     0.13600
C372        C  0.00044172  0.09735481  0.20908621    -0.20700
C373        C  0.02628644  0.08303985  0.23220671    -0.07300
C374        C  0.03058062  0.08398492  0.28858682     0.13600
C375        C  0.05698166  0.06752978  0.31563136    -0.24100
H376        H  0.01394642  0.10164567  0.36322532     0.14900
H377        H  0.99702952  0.09647439  0.16579437     0.14900
C378        C  0.44951234  0.11816131  0.23667487    -0.24000
H379        H  0.05664659  0.07001423  0.36012632     0.05100
H380        H  0.07907853  0.07563650  0.30062228     0.08300
H381        H  0.05568751  0.04406378  0.30671042     0.08300
H382        H  0.44595576  0.14209045  0.23615099     0.08300
H383        H  0.44668160  0.11045428  0.19475324     0.08300
H384        H  0.43270594  0.61085904  0.25146724     0.05100
C385        C  0.15198689  0.11585735  0.95368491    -0.20700
C386        C  0.17912471  0.12745837  0.97336046    -0.07300
C387        C  0.18706636  0.12327081  0.02829973     0.13600
C388        C  0.16829742  0.10667226  0.06169655    -0.20700
C389        C  0.14172120  0.09401540  0.04183138    -0.07300
C390        C  0.13318742  0.09912574  0.98711330     0.13600
C391        C  0.10480391  0.08652499  0.96318984    -0.24100
H392        H  0.14585516  0.11937245  0.91160832     0.14900
H393        H  0.17433341  0.10375007  0.10390048     0.14900
C394        C  0.21482379  0.13704319  0.05224787    -0.24000
H395        H  0.10234480  0.09188358  0.91954095     0.05100
H396        H  0.08414252  0.09548119  0.98375931     0.08300
H397        H  0.10584865  0.06253898  0.96776213     0.08300
H398        H  0.21311955  0.16092522  0.04595201     0.08300
H399        H  0.23596513  0.12834140  0.03282834     0.08300
H400        H  0.21689842  0.13263735  0.09630446     0.05100
C401        C  0.38948303  0.05749873  0.72417353    -0.20700
C402        C  0.36154368  0.06887169  0.74393184    -0.07300
C403        C  0.35962267  0.07619583  0.79913808     0.13600
C404        C  0.38683684  0.07890969  0.82857038    -0.20700
C405        C  0.41533753  0.07523591  0.80320805    -0.07300
C406        C  0.41653747  0.05965210  0.75464550     0.13600
C407        C  0.44621549  0.04734677  0.73299289    -0.24100
H408        H  0.39079231  0.04979853  0.68311609     0.14900
H409        H  0.38574471  0.08881206  0.86796655     0.14900
C410        C  0.32968714  0.08505725  0.82525137    -0.24000
H411        H  0.45018029  0.05547144  0.69139229     0.05100
H412        H  0.44511798  0.02335028  0.73173834     0.08300
H413        H  0.46587438  0.05305079  0.75891287     0.08300
H414        H  0.31332708  0.06720012  0.82208466     0.08300
H415        H  0.31982060  0.10499553  0.80550118     0.08300
H416        H  0.33274070  0.08987439  0.86866563     0.05100
C417        C  0.46985688  0.41193673  0.69429104    -0.20700
C418        C  0.45538590  0.40779120  0.74382746    -0.07300
C419        C  0.44090994  0.38137074  0.75427148     0.13600
C420        C  0.44435734  0.35871411  0.71707741    -0.20700
C421        C  0.46490158  0.36088326  0.67379347    -0.07300
C422        C  0.47606161  0.38870623  0.66009942     0.13600
C423        C  0.49735539  0.39402232  0.61331419    -0.24100
H424        H  0.48003724  0.43261843  0.68556913     0.14900
H425        H  0.43431013  0.33804874  0.72579890     0.14900
C426        C  0.42292751  0.37660003  0.80506320    -0.24000
H427        H  0.50415898  0.41699920  0.61047946     0.05100
H428        H  0.48589469  0.38912432  0.57465918     0.08300
H429        H  0.51878461  0.38064968  0.61828464     0.08300
H430        H  0.40440786  0.39355029  0.80806726     0.08300
H431        H  0.94099276  0.37475853  0.84554478     0.08300
H432        H  0.91696036  0.35085312  0.80926515     0.05100
C433        C  0.41056618  0.51136658  0.31076168    -0.20700
C434        C  0.44186162  0.50723057  0.29893053    -0.07300
C435        C  0.45300593  0.02398540  0.26431451     0.13600
C436        C  0.43388602  0.04309667  0.23286559    -0.20700
C437        C  0.40215748  0.04586626  0.24189680    -0.07300
C438        C  0.38960453  0.02972180  0.28510615     0.13600
C439        C  0.35599033  0.03243261  0.29853580    -0.24100
H440        H  0.40086692  0.49905488  0.34367849     0.14900
H441        H  0.94117235  0.05416947  0.19494398     0.14900
C442        C  0.98413375  0.01779774  0.24009057    -0.24000
H443        H  0.35251027  0.52062815  0.33155546     0.05100
H444        H  0.34197007  0.02424783  0.26488654     0.08300
H445        H  0.34951257  0.05551086  0.30590804     0.08300
H446        H  0.99523404  0.49727755  0.23900823     0.08300
H447        H  0.99879937  0.02356088  0.27479899     0.08300
H448        H  0.98945704  0.03239223  0.20573647     0.05100
C449        C  0.26782206  0.06134005  0.25295307    -0.20700
C450        C  0.26536621  0.06455847  0.19696256    -0.07300
C451        C  0.23610089  0.06454358  0.17265960     0.13600
C452        C  0.21031933  0.06939752  0.20560657    -0.20700
C453        C  0.21463729  0.07646749  0.26019490    -0.07300
C454        C  0.24233296  0.06670094  0.28532995     0.13600
C455        C  0.24677452  0.06694287  0.34552710    -0.24100
H456        H  0.29029896  0.05855108  0.27153112     0.14900
H457        H  0.18826481  0.07431392  0.18680465     0.14900
C458        C  0.23234582  0.06239398  0.11261016    -0.24000
H459        H  0.26976591  0.05801058  0.35770724     0.05100
H460        H  0.22946350  0.05316199  0.36442297     0.08300
H461        H  0.24460222  0.08932589  0.36109121     0.08300
H462        H  0.24399399  0.04214447  0.09859023     0.08300
H463        H  0.24255675  0.08130207  0.09223341     0.08300
H464        H  0.20786226  0.06154930  0.10073556     0.05100
C465        C  0.41784411  0.04355349  0.01116625    -0.20700
C466        C  0.38599853  0.04693433  0.00539227    -0.07300
C467        C  0.37080230  0.03311339  0.96251199     0.13600
C468        C  0.38816701  0.01583075  0.92706522    -0.20700
C469        C  0.41971131  0.01160360  0.93518365    -0.07300
C470        C  0.43482796  0.02587574  0.97696374     0.13600
C471        C  0.95342369  0.99120242  0.02143539    -0.24100
H472        H  0.42958666  0.05409155  0.04381298     0.14900
H473        H  0.37711481  0.00505944  0.89394542     0.14900
C474        C  0.33665726  0.03633227  0.95378632    -0.24000
H475        H  0.95783493  0.99823047  0.06338494     0.05100
H476        H  0.97363792  0.99679746  0.99692655     0.08300
H477        H  0.95100262  0.96732724  0.02263261     0.08300
H478        H  0.32978684  0.05964763  0.95014229     0.08300
H479        H  0.32443857  0.02631877  0.98808811     0.08300
H480        H  0.32925144  0.02545356  0.91640520     0.05100
C481        C  0.26900779  0.35710475  0.84216943    -0.20700
C482        C  0.24579791  0.37421965  0.81666895    -0.07300
C483        C  0.24501076  0.37575558  0.75950286     0.13600
C484        C  0.26746141  0.36018575  0.72984117    -0.20700
C485        C  0.29110768  0.34391973  0.75583136    -0.07300
C486        C  0.29165208  0.34215515  0.81274857     0.13600
C487        C  0.31569827  0.32399389  0.84288091    -0.24100
H488        H  0.26957824  0.35545376  0.88582288     0.14900
H489        H  0.26724184  0.36158427  0.68616578     0.14900
C490        C  0.22144321  0.39444266  0.72950662    -0.24000
H491        H  0.31163574  0.32384032  0.88707015     0.05100
H492        H  0.33874031  0.33279205  0.83605822     0.08300
H493        H  0.31540039  0.30122338  0.82893074     0.08300
H494        H  0.22331095  0.41736147  0.74180615     0.08300
H495        H  0.19800847  0.38713649  0.73826086     0.08300
H496        H  0.22471952  0.39347183  0.68515817     0.05100
C497        C  0.23072909  0.02630894  0.82255917    -0.20700
C498        C  0.22005569  0.04554758  0.86208955    -0.07300
C499        C  0.22853803  0.03954818  0.91620238     0.13600
C500        C  0.23307292  0.51580306  0.92602221    -0.20700
C501        C  0.23101917  0.49333124  0.88869899    -0.07300
C502        C  0.23887663  0.99774883  0.83706929     0.13600
C503        C  0.23998289  0.47642347  0.79215137    -0.24100
H504        H  0.22720975  0.03159713  0.78017694     0.14900
H505        H  0.23330767  0.51097304  0.96890903     0.14900
C506        C  0.22689231  0.06294229  0.95767472    -0.24000
H507        H  0.26535758  0.98363767  0.76898713     0.05100
H508        H  0.21980455  0.47562094  0.76478473     0.08300
H509        H  0.24406823  0.45472059  0.81123882     0.08300
H510        H  0.20352214  0.07277965  0.95945856     0.08300
H511        H  0.24310409  0.08008664  0.94675514     0.08300
H512        H  0.23324561  0.05430395  0.99829357     0.05100
C513        C  0.24520843  0.41436983  0.28510467    -0.20700
C514        C  0.21600574  0.41009630  0.30670517    -0.07300
C515        C  0.20413566  0.38181655  0.30620050     0.13600
C516        C  0.22152104  0.35898679  0.28336415    -0.20700
C517        C  0.25011346  0.36362265  0.26017435    -0.07300
C518        C  0.26245461  0.39160022  0.26219662     0.13600
C519        C  0.29389469  0.39834030  0.24141879    -0.24100
H520        H  0.25482969  0.43574828  0.28594091     0.14900
H521        H  0.21223034  0.33748283  0.28204390     0.14900
C522        C  0.17339008  0.37513391  0.32972335    -0.24000
H523        H  0.29171581  0.41400395  0.20710969     0.05100
H524        H  0.30718243  0.37893162  0.22810350     0.08300
H525        H  0.30742291  0.40822063  0.27408206     0.08300
H526        H  0.15492610  0.38766888  0.30794089     0.08300
H527        H  0.17299438  0.38024455  0.37334656     0.08300
H528        H  0.16861343  0.35185897  0.32617126     0.05100
C529        C  0.41483002  0.32403379  0.25743329    -0.20700
C530        C  0.43492449  0.31485378  0.21645802    -0.07300
C531        C  0.42522025  0.31857014  0.16228176     0.13600
C532        C  0.39411991  0.32388577  0.15092291    -0.20700
C533        C  0.37298783  0.32557943  0.19305161    -0.07300
C534        C  0.38362197  0.32887514  0.24641328     0.13600
C535        C  0.36211286  0.33587834  0.29217398    -0.24100
H536        H  0.42219025  0.32282392  0.29920910     0.14900
H537        H  0.38611935  0.32306534  0.10948825     0.14900
C538        C  0.44671936  0.31392019  0.11628291    -0.24000
H539        H  0.37480220  0.33919780  0.33046027     0.05100
H540        H  0.34620498  0.31800334  0.29936153     0.08300
H541        H  0.34877898  0.35618307  0.28257991     0.08300
H542        H  0.47023980  0.30885027  0.13127630     0.08300
H543        H  0.44692918  0.33402200  0.09123244     0.08300
H544        H  0.43914725  0.29571032  0.09111039     0.05100
C545        C  0.20247177  0.30041055  0.03556876    -0.20700
C546        C  0.20484244  0.30919130  0.08919971    -0.07300
C547        C  0.18794719  0.33382403  0.10667830     0.13600
C548        C  0.17450492  0.35240781  0.06815209    -0.20700
C549        C  0.17895917  0.34710308  0.01339108    -0.07300
C550        C  0.19043288  0.31981741  0.99651202     0.13600
C551        C  0.19430592  0.31296542  0.93771067    -0.24100
H552        H  0.21524668  0.28115317  0.02288778     0.14900
H553        H  0.16496560  0.37326136  0.08064693     0.14900
C554        C  0.18960666  0.34430478  0.16373814    -0.24000
H555        H  0.20407241  0.29069163  0.93210823     0.05100
H556        H  0.21010158  0.32846167  0.91878266     0.08300
H557        H  0.17171164  0.31456718  0.91691029     0.08300
H558        H  0.20403201  0.36367732  0.16540861     0.08300
H559        H  0.19936372  0.32727223  0.19126144     0.08300
H560        H  0.16636337  0.35047483  0.17815909     0.05100
C561        C  0.47615567  0.26781574  0.31421278    -0.20700
C562        C  0.46309753  0.24186981  0.29784671    -0.07300
C563        C  0.45439688  0.23898030  0.24318379     0.13600
C564        C  0.45191491  0.26387254  0.21056533    -0.20700
C565        C  0.45752093  0.29130522  0.23185639    -0.07300
C566        C  0.47408615  0.29257671  0.28075991     0.13600
C567        C  0.48689156  0.32047901  0.30005039    -0.24100
H568        H  0.48541501  0.26960850  0.35465388     0.14900
H569        H  0.44092569  0.26217030  0.17152326     0.14900
C570        C  0.44623395  0.21024499  0.21944044    -0.24000
H571        H  0.47626224  0.32656898  0.33886168     0.05100
H572        H  0.48243811  0.33839246  0.27050495     0.08300
H573        H  0.01140449  0.31818493  0.30300834     0.08300
H574        H  0.42426382  0.20276686  0.23597992     0.08300
H575        H  0.46486794  0.19387573  0.22817810     0.08300
H576        H  0.44338632  0.21185242  0.17492884     0.05100
C577        C  0.14517727  0.29733671  0.34022163    -0.20700
C578        C  0.16728227  0.28141134  0.31092570    -0.07300
C579        C  0.16538433  0.28197722  0.25395312     0.13600
C580        C  0.14326655  0.30019065  0.22790163    -0.20700
C581        C  0.12213138  0.31713594  0.25718491    -0.07300
C582        C  0.12262701  0.31513445  0.31426434     0.13600
C583        C  0.10092014  0.33248395  0.34939253    -0.24100
H584        H  0.14606921  0.29666206  0.38394613     0.14900
H585        H  0.14188684  0.30059849  0.18421008     0.14900
C586        C  0.18499914  0.26180584  0.22063657    -0.24000
H587        H  0.08686404  0.31748175  0.37350726     0.05100
H588        H  0.08527503  0.34746394  0.32636911     0.08300
H589        H  0.11427651  0.34587840  0.37740788     0.08300
H590        H  0.18020198  0.23905561  0.23197599     0.08300
H591        H  0.20951046  0.26566562  0.22798575     0.08300
H592        H  0.18031488  0.26472417  0.17677643     0.05100
C593        C  0.48729665  0.33137084  0.59910925    -0.20700
C594        C  0.48135436  0.33410129  0.65454271    -0.07300
C595        C  0.50068747  0.31811424  0.69121290     0.13600
C596        C  0.03802177  0.30282324  0.67618481    -0.20700
C597        C  0.04592064  0.31033129  0.62329056    -0.07300
C598        C  0.02227579  0.31688555  0.58584896     0.13600
C599        C  0.02887563  0.32021114  0.52667674    -0.24100
H600        H  0.47153796  0.34139576  0.57036935     0.14900
H601        H  0.05595556  0.29537589  0.70400535     0.14900
C602        C  0.49367140  0.31501271  0.75050588    -0.24000
H603        H  0.00758944  0.32511798  0.50327091     0.05100
H604        H  0.03937614  0.29970191  0.51139331     0.08300
H605        H  0.04474596  0.33820004  0.51974238     0.08300
H606        H  0.51152178  0.30158594  0.77214629     0.08300
H607        H  0.47160282  0.30405236  0.75580019     0.08300
H608        H  0.00301518  0.33079414  0.77539914     0.05100
C609        C  0.44923756  0.14837735  0.80078247    -0.20700
C610        C  0.45089379  0.15278832  0.85639794    -0.07300
C611        C  0.45276308  0.12820310  0.89137829     0.13600
C612        C  0.44676719  0.10067935  0.87049491    -0.20700
C613        C  0.43806708  0.09758574  0.81622837    -0.07300
C614        C  0.44166452  0.12147894  0.78024163     0.13600
C615        C  0.43387807  0.12033359  0.72105805    -0.24100
H616        H  0.44962558  0.16691174  0.77347307     0.14900
H617        H  0.44480406  0.08231838  0.89791027     0.14900
C618        C  0.45930775  0.13079632  0.95080891    -0.24000
H619        H  0.43747962  0.14130191  0.69983346     0.05100
H620        H  0.40947918  0.11508897  0.71519554     0.08300
H621        H  0.44902421  0.10406648  0.70178819     0.08300
H622        H  0.43991154  0.14208180  0.97126529     0.08300
H623        H  0.48064789  0.14286475  0.95680431     0.08300
H624        H  0.46257415  0.10913370  0.97053460     0.05100
C625        C  0.49875372  0.26895671  0.02332818    -0.20700
C626        C  0.47802430  0.28337292  0.98762754    -0.07300
C627        C  0.47719963  0.31412037  0.98559214     0.13600
C628        C  0.49569717  0.32944507  0.02131723    -0.20700
C629        C  0.51477831  0.31497277  0.05941434    -0.07300
C630        C  0.51694357  0.28437128  0.05950407     0.13600
C631        C  0.04286883  0.26648396  0.10061495    -0.24100
H632        H  0.49965650  0.24544945  0.02480775     0.19300
H633        H  0.49443221  0.35296583  0.02091062     0.14900
C634        C  0.45699146  0.33102015  0.94600368    -0.24000
H635        H  0.04245500  0.24266668  0.09475520     0.05100
H636        H  0.03669753  0.27102559  0.14313836     0.08300
H637        H  0.06655434  0.27354607  0.09301046     0.08300
H638        H  0.43250175  0.32777111  0.95530484     0.08300
H639        H  0.46198125  0.32385016  0.90428781     0.08300
H640        H  0.46083662  0.35468372  0.94776374     0.05100
In641      In  0.41814389  0.72981760  0.90776529     1.36900
C642        C  0.37177671  0.71847772  0.97515586     0.77200
O643        O  0.44318712  0.70193452  0.84813866    -0.61300
O644        O  0.43662913  0.68456210  0.92617810    -0.52200
C645        C  0.39729964  0.75497252  0.81440355     0.69900
O646        O  0.38109288  0.73906835  0.84381780    -0.47000
C647        C  0.45650889  0.76239856  0.96510874     0.74600
O648        O  0.38586441  0.74191211  0.97456769    -0.58900
O649        O  0.46012905  0.73529556  0.96077796    -0.49000
O650        O  0.38024318  0.70104939  0.93916403    -0.55300
C651        C  0.44550430  0.67993345  0.87882556     0.84700
O652        O  0.42392511  0.75827480  0.83280817    -0.57200
O653        O  0.43383613  0.77268691  0.93875863    -0.60500
In654      In  0.05891151  0.86422376  0.16947207     1.36900
C655        C  0.06703478  0.90305858  0.08967673     0.77200
O656        O  0.10614270  0.84336431  0.18308266    -0.61300
O657        O  0.07130400  0.83408646  0.23873455    -0.52200
C658        C  0.52831422  0.89958557  0.25640711     0.69900
O659        O  0.55434477  0.90519066  0.23766103    -0.47000
C660        C  0.52686414  0.83059060  0.11385406     0.74600
O661        O  0.04163222  0.89272278  0.10216871    -0.58900
O662        O  0.05868817  0.83270422  0.10116422    -0.49000
O663        O  0.08892096  0.89509470  0.12075655    -0.55300
C664        C  0.09883694  0.83001599  0.22564258     0.84700
O665        O  0.51518108  0.87939851  0.23261483    -0.57200
O666        O  0.51232305  0.84843333  0.14302053    -0.60500
In667      In  0.28223663  0.79827131  0.17061011     1.36900
C668        C  0.29954565  0.75181582  0.11691078     0.77200
O669        O  0.23455956  0.78468295  0.16323622    -0.61300
O670        O  0.25383787  0.81432744  0.10471930    -0.52200
C671        C  0.25900531  0.83707026  0.23573522     0.69900
O672        O  0.25994684  0.81015797  0.24911242    -0.47000
C673        C  0.33644166  0.81562091  0.19300192     0.74600
O674        O  0.29275434  0.74989400  0.16689304    -0.58900
O675        O  0.32204136  0.82447424  0.15092009    -0.49000
O676        O  0.29790381  0.77720085  0.09667715    -0.55300
C677        C  0.23074486  0.80083650  0.12174844     0.84700
O678        O  0.26986080  0.84325001  0.18981113    -0.57200
O679        O  0.32295838  0.79728261  0.22248980    -0.60500
In680      In  0.19120838  0.91407870  0.91928180     1.36900
C681        C  0.13615443  0.93285726  0.95066010     0.77200
O682        O  0.17230067  0.87098608  0.93434411    -0.61300
O683        O  0.19981567  0.89111738  0.99532879    -0.52200
C684        C  0.22569599  0.88407000  0.85085057     0.69900
O685        O  0.19927422  0.89427604  0.83724092    -0.47000
C686        C  0.22108261  0.96180417  0.90362190     0.74600
O687        O  0.14140885  0.92442336  0.90274348    -0.58900
O688        O  0.22553716  0.94663940  0.94616792    -0.49000
O689        O  0.15959056  0.93395332  0.98057080    -0.55300
C690        C  0.18377533  0.86987401  0.98137505     0.84700
O691        O  0.23352822  0.88910404  0.89896418    -0.57200
O692        O  0.20072963  0.95291052  0.87182677    -0.60500
In693      In  0.34386067  0.58957275  0.12640704     1.36900
C694        C  0.33192079  0.64523940  0.09343938     0.77200
O695        O  0.38284013  0.58317539  0.07186708    -0.61300
O696        O  0.34202119  0.56047165  0.05605770    -0.52200
C697        C  0.38281650  0.56290675  0.19778325     0.69900
O698        O  0.38597716  0.58909326  0.18306944    -0.47000
C699        C  0.29239612  0.57258858  0.16988718     0.74600
O700        O  0.34106198  0.63853818  0.14068019    -0.58900
O701        O  0.29927101  0.56614304  0.12206775    -0.49000
O702        O  0.32896066  0.62369218  0.06353591    -0.55300
C703        C  0.36946318  0.56484072  0.04334367     0.84700
O704        O  0.36034619  0.55116136  0.17611315    -0.57200
O705        O  0.31081277  0.58904356  0.19295524    -0.60500
In706      In  0.48563784  0.46834471  0.85016554     1.36900
C707        C  0.02371578  0.46032997  0.93070804     0.77200
O708        O  0.44958443  0.46985817  0.91344146    -0.61300
O709        O  0.45215374  0.50497023  0.85676258    -0.52200
C710        C  0.52115358  0.49959592  0.78861581     0.69900
O711        O  0.52622374  0.47272642  0.79585083    -0.47000
C712        C  0.45849961  0.92632948  0.78757713     0.74600
O713        O  0.00845867  0.48367221  0.92339866    -0.58900
O714        O  0.46467289  0.92155476  0.83664973    -0.49000
O715        O  0.01489567  0.93262781  0.89486518    -0.55300
C716        C  0.44051514  0.49504752  0.89909863     0.84700
O717        O  0.49796004  0.51005710  0.81211402    -0.57200
O718        O  0.95690962  0.94962080  0.77458082    -0.60500
In719      In  0.09870335  0.54600359  0.14778434     1.36900
C720        C  0.08467104  0.99662786  0.07319206     0.77200
O721        O  0.04893379  0.55689240  0.17004089    -0.61300
O722        O  0.08399101  0.57891433  0.20947580    -0.52200
C723        C  0.12623325  0.51952904  0.23185190     0.69900
O724        O  0.10066041  0.51191917  0.21372479    -0.47000
C725        C  0.12810098  0.58305907  0.08245785     0.74600
O726        O  0.10645245  0.99531348  0.10672986    -0.58900
O727        O  0.09935026  0.58188038  0.08404819    -0.49000
O728        O  0.06752992  0.01899284  0.07710517    -0.55300
C729        C  0.05566356  0.57497029  0.20558795     0.84700
O730        O  0.13789342  0.54034383  0.20657401    -0.57200
O731        O  0.14157565  0.56574795  0.11505619    -0.60500
In732      In  0.23946661  0.67822406  0.87010756     1.36900
C733        C  0.27571075  0.69290047  0.95306644     0.77200
O734        O  0.23449834  0.72505125  0.84135150    -0.61300
O735        O  0.20006398  0.69570248  0.82051574    -0.52200
C736        C  0.26464550  0.65242879  0.78295504     0.69900
O737        O  0.27500341  0.67501779  0.80348447    -0.47000
C738        C  0.20212793  0.64835654  0.93342270     0.74600
O739        O  0.28253514  0.67234967  0.92179660    -0.58900
O740        O  0.19330292  0.67095728  0.90804428    -0.49000
O741        O  0.25153405  0.70701391  0.93973272    -0.55300
C742        C  0.20979182  0.72104772  0.81598743     0.84700
O743        O  0.24242121  0.64219067  0.80837906    -0.57200
O744        O  0.22924387  0.64001562  0.92332659    -0.60500
C745        C  0.05001682  0.94965388  0.96340775     0.86100
C746        C  0.04613945  0.92550340  0.00534846    -0.54100
C747        C  0.06976715  0.92254668  0.04176072     0.09000
C748        C  0.09583907  0.94393918  0.03116693     0.20000
C749        C  0.05536815  0.97685674  0.99681362    -0.54900
C750        C  0.07899086  0.97391228  0.03296894     0.09100
C751        C  0.08055786  0.94278400  0.93607362    -0.54400
C752        C  0.10481890  0.93996015  0.97072772     0.09700
H753        H  0.02568196  0.91271730  0.00745156     0.14200
H754        H  0.11527192  0.94142751  0.06013855     0.00000
H755        H  0.04152383  0.50399481  0.00114294     0.14500
H756        H  0.08277514  0.94050769  0.89268848     0.14300
C757        C  0.30911749  0.72663437  0.08168339     0.86100
C758        C  0.33842128  0.73322016  0.05084986    -0.54100
C759        C  0.34715528  0.71269876  0.01454668     0.09000
C760        C  0.32626044  0.68618211  0.01451754     0.20000
C761        C  0.28531284  0.72082635  0.03727517    -0.54900
C762        C  0.29425897  0.69985690  0.00157763     0.09100
C763        C  0.31581193  0.69711569  0.10936448    -0.54400
C764        C  0.32483031  0.67566933  0.07458802     0.09700
H765        H  0.35023772  0.75346440  0.05513320     0.14200
H766        H  0.33367073  0.66905767  0.98589641     0.00000
H767        H  0.26369386  0.73304463  0.03345300     0.14500
H768        H  0.31344759  0.69344235  0.15247310     0.14300
In769      In  0.07070715  0.54771819  0.68595431     1.36900
C770        C  0.07138110  0.00390748  0.61408445     0.77200
O771        O  0.53111029  0.57941721  0.67491737    -0.61300
O772        O  0.06879815  0.58329560  0.62312473    -0.52200
C773        C  0.54012772  0.51749002  0.75462604     0.69900
O774        O  0.56397102  0.50774191  0.73192037    -0.47000
C775        C  0.11689978  0.57086173  0.73920412     0.74600
O776        O  0.04698940  0.01879235  0.61979150    -0.58900
O777        O  0.09025223  0.56932455  0.75795188    -0.49000
O778        O  0.09277657  0.01017435  0.64596962    -0.55300
C779        C  0.54286416  0.59357600  0.63701592     0.84700
O780        O  0.53334011  0.54382949  0.74501984    -0.57200
O781        O  0.11955616  0.56167923  0.69184979    -0.60500
In782      In  0.44321198  0.67994755  0.39865376     1.36900
C783        C  0.39101751  0.69562122  0.44879415     0.77200
O784        O  0.44937085  0.64836089  0.46492889    -0.61300
O785        O  0.47721304  0.68565098  0.46516677    -0.52200
C786        C  0.47118027  0.63987495  0.33855442     0.69900
O787        O  0.44208116  0.64303366  0.33783044    -0.47000
C788        C  0.45514455  0.72145648  0.32872615     0.74600
O789        O  0.39298229  0.67210558  0.42278318    -0.58900
O790        O  0.46826654  0.71959471  0.37433316    -0.49000
O791        O  0.41405046  0.71127742  0.44372905    -0.55300
C792        C  0.47047457  0.66187711  0.48762676     0.84700
O793        O  0.48451334  0.65649856  0.37028846    -0.57200
O794        O  0.43468543  0.70310494  0.32115608    -0.60500
In795      In  0.36337297  0.79606111  0.67343315     1.36900
C796        C  0.35041905  0.75623549  0.60007338     0.77200
O797        O  0.31315255  0.80817266  0.68281762    -0.61300
O798        O  0.34558368  0.82670731  0.73570235    -0.52200
C799        C  0.38597370  0.76878799  0.76324280     0.69900
O800        O  0.36045271  0.76323240  0.74237388    -0.47000
C801        C  0.39338674  0.83363119  0.60973807     0.74600
O802        O  0.37426618  0.75521077  0.62898124    -0.58900
O803        O  0.36970997  0.84062153  0.63572893    -0.49000
O804        O  0.33242831  0.77753267  0.60931944    -0.55300
C805        C  0.31776003  0.82420250  0.72286904     0.84700
O806        O  0.40063972  0.78748785  0.73712321    -0.57200
O807        O  0.40303566  0.80807753  0.61952709    -0.60500
In808      In  0.98895461  0.93557882  0.37828294     1.36900
C809        C  0.02961675  0.94686531  0.45722514     0.77200
O810        O  0.98481569  0.98033828  0.33688720    -0.61300
O811        O  0.44630896  0.96179535  0.35653223    -0.52200
C812        C  0.51464683  0.91455487  0.30331194     0.69900
O813        O  0.52721925  0.93517606  0.32692685    -0.47000
C814        C  0.45549165  0.90607610  0.45229954     0.74600
O815        O  0.03188288  0.92484610  0.42788588    -0.58900
O816        O  0.45423952  0.93341223  0.45437875    -0.49000
O817        O  0.00722046  0.96373076  0.44500683    -0.55300
C818        C  0.45829789  0.98434544  0.33817488     0.84700
O819        O  0.48963887  0.90725370  0.32400255    -0.57200
O820        O  0.47381563  0.89653459  0.41709320    -0.60500
In821      In  0.12616461  0.84925666  0.61221848     1.36900
C822        C  0.10320631  0.90075066  0.58108345     0.77200
O823        O  0.17345031  0.86538682  0.61790896    -0.61300
O824        O  0.15940374  0.84101230  0.54865973    -0.52200
C825        C  0.14917795  0.81107151  0.68323508     0.69900
O826        O  0.14218335  0.83709765  0.69635189    -0.47000
C827        C  0.07405787  0.82369024  0.61310363     0.74600
O828        O  0.11062624  0.89488916  0.62989988    -0.58900
O829        O  0.09182137  0.82099377  0.57288092    -0.49000
O830        O  0.10788867  0.88024906  0.54848968    -0.55300
C831        C  0.18086338  0.85269801  0.57469531     0.84700
O832        O  0.14355054  0.80517617  0.63442929    -0.57200
O833        O  0.08348698  0.83920374  0.65121900    -0.60500
In834      In  0.23409633  0.73465767  0.40217507     1.36900
C835        C  0.28359200  0.71644961  0.45365235     0.77200
O836        O  0.25204540  0.77794228  0.41490718    -0.61300
O837        O  0.22341902  0.75804910  0.47571984    -0.52200
C838        C  0.19052628  0.76228104  0.34706033     0.69900
O839        O  0.21830690  0.76101280  0.33120903    -0.47000
C840        C  0.22004154  0.68828131  0.35136683     0.74600
O841        O  0.28492648  0.72834369  0.40698617    -0.58900
O842        O  0.20860378  0.69416423  0.39732809    -0.49000
O843        O  0.25689888  0.71072020  0.47031474    -0.55300
C844        C  0.23899775  0.77967172  0.46064811     0.84700
O845        O  0.18548455  0.74997316  0.39231638    -0.57200
O846        O  0.24009825  0.70553788  0.33432320    -0.60500
In847      In  0.30371509  0.61227459  0.64818058     1.36900
C848        C  0.32458498  0.65432485  0.58337155     0.77200
O849        O  0.35029192  0.59125128  0.66075491    -0.61300
O850        O  0.31467301  0.57936605  0.71350639    -0.52200
C851        C  0.27752452  0.63907651  0.73359626     0.69900
O852        O  0.30105188  0.64812604  0.71041957    -0.47000
C853        C  0.27397780  0.57871682  0.58045833     0.74600
O854        O  0.29821909  0.64438479  0.57755508    -0.58900
O855        O  0.30205557  0.57494750  0.59139673    -0.49000
O856        O  0.34025067  0.64221651  0.62068097    -0.55300
C857        C  0.34280742  0.57756045  0.70280903     0.84700
O858        O  0.26623804  0.61741257  0.71129771    -0.57200
O859        O  0.26111749  0.59944463  0.60537714    -0.60500
In860      In  0.16781844  0.48129119  0.36709888     1.36900
C861        C  0.12913297  0.47128641  0.44753699     0.77200
O862        O  0.16918980  0.93276495  0.35816081    -0.61300
O863        O  0.20368795  0.95936428  0.32708093    -0.52200
C864        C  0.14110402  0.50558109  0.27916514     0.69900
O865        O  0.12869524  0.48627650  0.30703759    -0.47000
C866        C  0.20406373  0.51217634  0.42909843     0.74600
O867        O  0.13657620  0.49618829  0.43232735    -0.58900
O868        O  0.18093422  0.52273870  0.40445584    -0.49000
O869        O  0.13650685  0.95009252  0.42157323    -0.55300
C870        C  0.19413969  0.93393588  0.33308084     0.84700
O871        O  0.16720456  0.51223817  0.29566777    -0.57200
O872        O  0.21008966  0.48583277  0.41922051    -0.60500
C873        C  0.07505620  0.98030665  0.57335709     0.86100
C874        C  0.09988701  0.98701007  0.53244914    -0.54100
C875        C  0.10480792  0.96578902  0.49550039     0.09000
C876        C  0.08474817  0.93924379  0.50371011     0.20000
C877        C  0.04668921  0.97402763  0.53857117    -0.54900
C878        C  0.05181868  0.95276315  0.50124753     0.09100
C879        C  0.08493963  0.95119173  0.59924844    -0.54400
C880        C  0.09047123  0.92960544  0.56333014     0.09700
H881        H  0.11643999  0.50913082  0.52881075     0.14200
H882        H  0.08913052  0.92192338  0.47376570     0.00000
H883        H  0.02514332  0.98635158  0.54110381     0.14500
H884        H  0.08829712  0.94823546  0.64246058     0.14300
C885        C  0.34403683  0.73277559  0.56022255     0.86100
C886        C  0.37000810  0.72707057  0.52041546    -0.54100
C887        C  0.36569206  0.70436740  0.48630602     0.09000
C888        C  0.33446528  0.68944102  0.49563557     0.20000
C889        C  0.31533551  0.73716045  0.52480139    -0.54900
C890        C  0.31032478  0.71474806  0.49049605     0.09100
C891        C  0.34000420  0.70403953  0.58945528    -0.54400
C892        C  0.33437463  0.68136991  0.55692883     0.09700
H893        H  0.39064015  0.73965232  0.52046286     0.14200
H894        H  0.33021585  0.67097607  0.46860803     0.00000
H895        H  0.30036465  0.75640551  0.52625054     0.14500
H896        H  0.33978333  0.70213209  0.63324392     0.14300
C897        C  0.22515283  0.56482839  0.53862928    -0.20700
C898        C  0.25712164  0.56077119  0.54151293    -0.07300
C899        C  0.27168152  0.54030672  0.50694516     0.13600
C900        C  0.25377369  0.52468049  0.47076813    -0.20700
C901        C  0.22189534  0.52917639  0.46769187    -0.07300
C902        C  0.20737935  0.54932290  0.50253903     0.13600
C903        C  0.17298452  0.55347183  0.50444944    -0.24100
H904        H  0.21378363  0.58011232  0.56531399     0.14900
H905        H  0.26475652  0.50912817  0.44412051     0.14900
C906        C  0.30593364  0.53493574  0.50703117    -0.24000
H907        H  0.16562486  0.56874950  0.53648378     0.05100
H908        H  0.16259099  0.53232624  0.51316858     0.08300
H909        H  0.16392532  0.56236434  0.46565086     0.08300
H910        H  0.31367604  0.52650001  0.54714724     0.08300
H911        H  0.31756922  0.55539253  0.49724491     0.08300
H912        H  0.31312181  0.51866619  0.47658925     0.05100
C913        C  0.24080149  0.80211709  0.54965499    -0.20700
C914        C  0.23979045  0.80575173  0.49356134    -0.07300
C915        C  0.23196399  0.83327572  0.47112154     0.13600
C916        C  0.21870179  0.85440025  0.50447454    -0.20700
C917        C  0.21260078  0.84763206  0.55837949    -0.07300
C918        C  0.22796955  0.82344642  0.58278973     0.13600
C919        C  0.22654639  0.81727316  0.64241423    -0.24100
H920        H  0.24850293  0.78146652  0.56722653     0.14900
H921        H  0.20791478  0.87371982  0.48639990     0.14900
C922        C  0.23359693  0.83918136  0.41158372    -0.24000
H923        H  0.25011976  0.81350456  0.65849133     0.05100
H924        H  0.21343339  0.79741886  0.64978376     0.08300
H925        H  0.21574998  0.83554547  0.66473314     0.08300
H926        H  0.21761811  0.82508347  0.38985798     0.08300
H927        H  0.25735422  0.83501901  0.39723439     0.08300
H928        H  0.22729583  0.86216420  0.40210718     0.05100
C929        C  0.42212609  0.90013714  0.53316955    -0.20700
C930        C  0.43778984  0.88714160  0.48974158    -0.07300
C931        C  0.43701249  0.85654065  0.48480265     0.13600
C932        C  0.42222364  0.84001370  0.52443785    -0.20700
C933        C  0.40781996  0.85292988  0.56899110    -0.07300
C934        C  0.40700485  0.88355061  0.57243723     0.13600
C935        C  0.39091206  0.89893975  0.61796808    -0.24100
H936        H  0.42215293  0.92350183  0.53712950     0.14900
H937        H  0.42203337  0.81662661  0.52070828     0.14900
C938        C  0.45117226  0.84092655  0.43767391    -0.24000
H939        H  0.39388695  0.92275294  0.61585810     0.05100
H940        H  0.40027721  0.89088516  0.65727697     0.08300
H941        H  0.36596543  0.89508500  0.61602273     0.08300
H942        H  0.97101111  0.83930844  0.42914661     0.08300
H943        H  0.44080874  0.84962613  0.39953548     0.08300
H944        H  0.44724037  0.81725401  0.43941072     0.05100
C945        C  0.51938063  0.65325899  0.53634628    -0.20700
C946        C  0.48767828  0.64922392  0.53380521    -0.07300
C947        C  0.47402170  0.62994997  0.57054985     0.13600
C948        C  0.49281764  0.61357571  0.60602174    -0.20700
C949        C  0.52484262  0.61547925  0.60520825    -0.07300
C950        C  0.53830542  0.63625122  0.57100952     0.13600
C951        C  0.06616953  0.64550996  0.58585922    -0.24100
H952        H  0.52969856  0.66822109  0.50822385     0.14900
H953        H  0.48250983  0.59759304  0.63192138     0.14900
C954        C  0.43979852  0.62599560  0.57196032    -0.24000
H955        H  0.07055572  0.66622021  0.56430701     0.05100
H956        H  0.08270929  0.62883495  0.57063114     0.08300
H957        H  0.07029546  0.64875379  0.62956947     0.08300
H958        H  0.43185970  0.61575170  0.53441652     0.08300
H959        H  0.42771508  0.64732493  0.57710381     0.08300
H960        H  0.43309313  0.61152766  0.60567341     0.05100
C961        C  0.19821378  0.58324746  0.78526472    -0.20700
C962        C  0.19657493  0.56998078  0.83664361    -0.07300
C963        C  0.16703196  0.56650949  0.85983571     0.13600
C964        C  0.14092009  0.57280092  0.82833562    -0.20700
C965        C  0.14330841  0.57874503  0.77308879    -0.07300
C966        C  0.17209106  0.58610179  0.75190007     0.13600
C967        C  0.17581181  0.59531348  0.69379402    -0.24100
H968        H  0.22058276  0.58664081  0.76793566     0.14900
H969        H  0.11859292  0.56844891  0.84501205     0.14900
C970        C  0.16186651  0.55197599  0.91398635    -0.24000
H971        H  0.19952844  0.60213667  0.68547089     0.05100
H972        H  0.15989713  0.61395583  0.68425002     0.08300
H973        H  0.17110117  0.57708350  0.66656356     0.08300
H974        H  0.17173038  0.56448422  0.94713355     0.08300
H975        H  0.17157926  0.52949086  0.91418222     0.08300
H976        H  0.13711686  0.55030940  0.92330384     0.05100
C977        C  0.19314136  0.77279117  0.80005446    -0.20700
C978        C  0.19365530  0.74390840  0.78275773    -0.07300
C979        C  0.17917788  0.73734825  0.73338315     0.13600
C980        C  0.16440617  0.75967360  0.70313785    -0.20700
C981        C  0.16348948  0.78863301  0.72041987    -0.07300
C982        C  0.17800857  0.79517381  0.76991375     0.13600
C983        C  0.17835869  0.82564258  0.79075157    -0.24100
H984        H  0.20451646  0.77783979  0.83757180     0.14900
H985        H  0.15366929  0.75436864  0.66516101     0.14900
C986        C  0.18027138  0.70706610  0.71091927    -0.24000
H987        H  0.18940755  0.83989429  0.76079850     0.05100
H988        H  0.19146551  0.82689008  0.82905635     0.08300
H989        H  0.15458382  0.83373572  0.79841536     0.08300
H990        H  0.16759108  0.69220489  0.73762406     0.08300
H991        H  0.20446655  0.69914544  0.70734354     0.08300
H992        H  0.16956061  0.70632359  0.67022966     0.05100
C993        C  0.21607068  0.63108523  0.24327078    -0.20700
C994        C  0.20307883  0.60838650  0.27274454    -0.07300
C995        C  0.18894660  0.61453449  0.32235741     0.13600
C996        C  0.19317878  0.64163608  0.34584765    -0.20700
C997        C  0.21096877  0.66267903  0.32028032    -0.07300
C998        C  0.22048929  0.65810607  0.26635764     0.13600
C999        C  0.23666010  0.68063481  0.23324228    -0.24100
H1000       H  0.22618060  0.62662515  0.20427360     0.14900
H1001       H  0.18413468  0.64551527  0.38581599     0.14900
C1002       C  0.17120396  0.59227654  0.35267946    -0.24000
H1003       H  0.24027674  0.67361775  0.19098718     0.05100
H1004       H  0.25960971  0.68451408  0.25068142     0.08300
H1005       H  0.22274318  0.70113799  0.23169138     0.08300
H1006       H  0.14750365  0.60080414  0.35963757     0.08300
H1007       H  0.18248356  0.58771380  0.39217405     0.08300
H1008       H  0.16974748  0.57170878  0.33022201     0.05100
C1009       C  0.01721665  0.61235521  0.32504408    -0.20700
C1010       C  0.48977689  0.61912251  0.30561921    -0.07300
C1011       C  0.48194219  0.61107894  0.25253989     0.13600
C1012       C  0.00340603  0.59806223  0.21918621    -0.20700
C1013       C  0.03252757  0.59011997  0.24035439    -0.07300
C1014       C  0.03927371  0.59720990  0.29442034     0.13600
C1015       C  0.06961076  0.58874652  0.32066510    -0.24100
H1016       H  0.02275388  0.61781308  0.36631364     0.14900
H1017       H  0.99807983  0.59277764  0.17775653     0.14900
C1018       C  0.45155270  0.62021237  0.22769385    -0.24000
H1019       H  0.07014749  0.59450024  0.36401741     0.05100
H1020       H  0.08843282  0.60030810  0.30064631     0.08300
H1021       H  0.07384722  0.56494399  0.31790560     0.08300
H1022       H  0.44893980  0.64422756  0.22716111     0.08300
H1023       H  0.44946934  0.61263468  0.18553164     0.08300
H1024       H  0.43169090  0.10820011  0.26202984     0.05100
C1025       C  0.15191414  0.62848282  0.96001453    -0.20700
C1026       C  0.18262361  0.63338451  0.97301682    -0.07300
C1027       C  0.19409628  0.62457733  0.02428085     0.13600
C1028       C  0.17525421  0.60925889  0.05955998    -0.20700
C1029       C  0.14513371  0.60246863  0.04538983    -0.07300
C1030       C  0.13294385  0.61321069  0.99554995     0.13600
C1031       C  0.10034217  0.60816855  0.97875308    -0.24100
H1032       H  0.14297057  0.63598553  0.92122583     0.14900
H1033       H  0.18412151  0.60268013  0.09881785     0.14900
C1034       C  0.22583932  0.63215400  0.04274338    -0.24000
H1035       H  0.09499976  0.61765799  0.93823614     0.05100
H1036       H  0.08432686  0.61848654  0.00792907     0.08300
H1037       H  0.09642072  0.58453233  0.97709304     0.08300
H1038       H  0.22853742  0.65597689  0.03957810     0.08300
H1039       H  0.24341308  0.62099817  0.01762101     0.08300
H1040       H  0.23017603  0.62559470  0.08544292     0.05100
C1041       C  0.39444718  0.55523020  0.71905432    -0.20700
C1042       C  0.36604730  0.56459460  0.74018263    -0.07300
C1043       C  0.36400569  0.57005748  0.79614129     0.13600
C1044       C  0.39114150  0.57377190  0.82527228    -0.20700
C1045       C  0.41953231  0.57270613  0.79894640    -0.07300
C1046       C  0.42147901  0.55842170  0.74907016     0.13600
C1047       C  0.45173764  0.54866033  0.72571366    -0.24100
H1048       H  0.39598158  0.54875375  0.67726498     0.14900
H1049       H  0.38967986  0.58248928  0.86561098     0.14900
C1050       C  0.33380641  0.57604817  0.82378199    -0.24000
H1051       H  0.45477599  0.55817559  0.68485478     0.05100
H1052       H  0.45236740  0.52467784  0.72219198     0.08300
H1053       H  0.47112401  0.55485331  0.75183344     0.08300
H1054       H  0.31851374  0.55756686  0.81775824     0.08300
H1055       H  0.32270039  0.59633747  0.80754560     0.08300
H1056       H  0.33686677  0.57881760  0.86789949     0.05100
C1057       C  0.46317348  0.90621972  0.69748427    -0.20700
C1058       C  0.45111644  0.90327846  0.74930260    -0.07300
C1059       C  0.43849562  0.87662672  0.76489395     0.13600
C1060       C  0.44258276  0.85255123  0.73115442    -0.20700
C1061       C  0.46214651  0.85393401  0.68641573    -0.07300
C1062       C  0.47035464  0.88182293  0.66675672     0.13600
C1063       C  0.48999898  0.88644735  0.61754032    -0.24100
H1064       H  0.47139669  0.92708751  0.68439092     0.14900
H1065       H  0.43461480  0.83171176  0.74438050     0.14900
C1066       C  0.42230071  0.87296075  0.81790821    -0.24000
H1067       H  0.49360106  0.90979472  0.60900634     0.05100
H1068       H  0.47887210  0.87771988  0.58124875     0.08300
H1069       H  0.51301136  0.87607040  0.62391590     0.08300
H1070       H  0.40335229  0.88947716  0.82099583     0.08300
H1071       H  0.93260940  0.87076081  0.83531256     0.08300
H1072       H  0.91015164  0.84682408  0.79589923     0.05100
C1073       C  0.40869467  0.01085570  0.31670695    -0.20700
C1074       C  0.44026075  0.00728068  0.30667217    -0.07300
C1075       C  0.45423701  0.52377719  0.25595573     0.13600
C1076       C  0.43495178  0.54331352  0.22573157    -0.20700
C1077       C  0.40343007  0.54636232  0.23640529    -0.07300
C1078       C  0.39129426  0.53042611  0.28011146     0.13600
C1079       C  0.35786048  0.53347835  0.29478404    -0.24100
H1080       H  0.39870104  0.99834935  0.34907686     0.14900
H1081       H  0.94535300  0.55333955  0.19680538     0.14900
C1082       C  0.98808964  0.51981726  0.24951166    -0.24000
H1083       H  0.35038153  0.01968324  0.33529962     0.05100
H1084       H  0.34331223  0.52566437  0.26150099     0.08300
H1085       H  0.35178017  0.55658739  0.30268668     0.08300
H1086       H  0.98978272  0.99521342  0.22771824     0.08300
H1087       H  0.00100367  0.52669653  0.28560069     0.08300
H1088       H  0.99430220  0.53417530  0.21526727     0.05100
C1089       C  0.26679654  0.56132807  0.25443257    -0.20700
C1090       C  0.26493949  0.56286047  0.19813705    -0.07300
C1091       C  0.23582896  0.56288069  0.17322155     0.13600
C1092       C  0.21012062  0.57070561  0.20444280    -0.20700
C1093       C  0.21420830  0.57880853  0.25849489    -0.07300
C1094       C  0.24127311  0.56881302  0.28544546     0.13600
C1095       C  0.24525392  0.57105596  0.34561967    -0.24100
H1096       H  0.28903786  0.55846648  0.27385794     0.14900
H1097       H  0.18850793  0.57601383  0.18450889     0.14900
C1098       C  0.23226053  0.55707772  0.11401921    -0.24000
H1099       H  0.26780118  0.56176177  0.35941179     0.05100
H1100       H  0.22725723  0.55867770  0.36595859     0.08300
H1101       H  0.24386791  0.59402387  0.35827125     0.08300
H1102       H  0.24320340  0.53568867  0.10468219     0.08300
H1103       H  0.24321611  0.57415755  0.08969577     0.08300
H1104       H  0.20777149  0.55627650  0.10207778     0.05100
C1105       C  0.41797717  0.55009236  0.00158226    -0.20700
C1106       C  0.38594115  0.54849240  0.00134975    -0.07300
C1107       C  0.37148012  0.52972406  0.96481388     0.13600
C1108       C  0.38976411  0.51256166  0.93060423    -0.20700
C1109       C  0.42167232  0.51343604  0.93341076    -0.07300
C1110       C  0.43602020  0.53239310  0.96886841     0.13600
C1111       C  0.88119680  0.46658742  0.94850952    -0.24100
H1112       H  0.42923704  0.56430379  0.02938727     0.14900
H1113       H  0.37925427  0.49804606  0.90241286     0.14900
C1114       C  0.33714817  0.52735596  0.96163536    -0.24000
H1115       H  0.86085648  0.46129338  0.97304547     0.05100
H1116       H  0.90078315  0.45290645  0.96388316     0.08300
H1117       H  0.87623673  0.46101880  0.90597771     0.08300
H1118       H  0.32624357  0.54907158  0.95363001     0.08300
H1119       H  0.32837556  0.51820385  0.99995741     0.08300
H1120       H  0.33017133  0.51281635  0.92869167     0.05100
C1121       C  0.26693210  0.84668763  0.83935551    -0.20700
C1122       C  0.24664941  0.86724807  0.81486079    -0.07300
C1123       C  0.24880726  0.87246294  0.75855580     0.13600
C1124       C  0.27185871  0.85772271  0.72893466    -0.20700
C1125       C  0.29269941  0.83803947  0.75422760    -0.07300
C1126       C  0.28980095  0.83204343  0.80987338     0.13600
C1127       C  0.31052881  0.80980374  0.83817929    -0.24100
H1128       H  0.26510578  0.84223788  0.88224883     0.14900
H1129       H  0.27415788  0.86213827  0.68612009     0.14900
C1130       C  0.22789853  0.89430755  0.72986799    -0.24000
H1131       H  0.30431315  0.80696668  0.88126811     0.05100
H1132       H  0.33465833  0.81664390  0.83666201     0.08300
H1133       H  0.30870420  0.78848389  0.81830897     0.08300
H1134       H  0.23028689  0.91599203  0.74796656     0.08300
H1135       H  0.20374539  0.88775500  0.73313656     0.08300
H1136       H  0.23339129  0.89612974  0.68628349     0.05100
C1137       C  0.23022085  0.52834141  0.81572533    -0.20700
C1138       C  0.22281632  0.55014217  0.85293344    -0.07300
C1139       C  0.23070353  0.54478717  0.90752560     0.13600
C1140       C  0.23605072  0.01063476  0.93125109    -0.20700
C1141       C  0.23632426  0.98915608  0.89165161    -0.07300
C1142       C  0.23475983  0.49973404  0.83342230     0.13600
C1143       C  0.24568953  0.97626101  0.79321384    -0.24100
H1144       H  0.22758436  0.53246025  0.77277532     0.14900
H1145       H  0.23676525  0.00446981  0.97357113     0.14900
C1146       C  0.23566965  0.56939827  0.94520231    -0.24000
H1147       H  0.26056596  0.48134715  0.76800293     0.05100
H1148       H  0.22536482  0.97458582  0.76640374     0.08300
H1149       H  0.25189535  0.95441287  0.81005458     0.08300
H1150       H  0.21593285  0.58487278  0.94426502     0.08300
H1151       H  0.25618246  0.58119321  0.93213243     0.08300
H1152       H  0.23949616  0.56154412  0.98730067     0.05100
C1153       C  0.24116426  0.91100978  0.29423836    -0.20700
C1154       C  0.21104640  0.90784178  0.31241633    -0.07300
C1155       C  0.19818368  0.87999205  0.31048225     0.13600
C1156       C  0.21546329  0.85659123  0.28920097    -0.20700
C1157       C  0.24498286  0.86023222  0.26903632    -0.07300
C1158       C  0.25840154  0.88761499  0.27341565     0.13600
C1159       C  0.29112868  0.89285326  0.25777626    -0.24100
H1160       H  0.25163019  0.93197606  0.29662850     0.14900
H1161       H  0.20544300  0.83543253  0.28679756     0.14900
C1162       C  0.16634898  0.87450666  0.33027986    -0.24000
H1163       H  0.29153212  0.90874191  0.22377297     0.05100
H1164       H  0.30392248  0.87283576  0.24595717     0.08300
H1165       H  0.30353243  0.90183004  0.29272623     0.08300
H1166       H  0.14930148  0.88815222  0.30720865     0.08300
H1167       H  0.16474541  0.87909388  0.37402363     0.08300
H1168       H  0.16052272  0.85160226  0.32495524     0.05100
C1169       C  0.41176141  0.82215320  0.26435303    -0.20700
C1170       C  0.43111495  0.81820589  0.21963618    -0.07300
C1171       C  0.41922364  0.82506349  0.16776305     0.13600
C1172       C  0.38747071  0.82813488  0.16073271    -0.20700
C1173       C  0.36785985  0.82417438  0.20453442    -0.07300
C1174       C  0.37996341  0.82399791  0.25745471     0.13600
C1175       C  0.35976335  0.82392555  0.30663766    -0.24100
H1176       H  0.42076042  0.81855911  0.30479706     0.14900
H1177       H  0.37803569  0.83026452  0.12027384     0.14900
C1178       C  0.43965703  0.82684549  0.11952611    -0.24000
H1179       H  0.37332156  0.82619413  0.34433285     0.05100
H1180       H  0.34759932  0.80325708  0.31007846     0.08300
H1181       H  0.34286205  0.84239555  0.30410944     0.08300
H1182       H  0.45565699  0.84470229  0.12527597     0.08300
H1183       H  0.42642442  0.83151727  0.08182396     0.08300
H1184       H  0.45271860  0.80617281  0.11416299     0.05100
C1185       C  0.19875115  0.79728184  0.04315362    -0.20700
C1186       C  0.20112410  0.80657733  0.09644925    -0.07300
C1187       C  0.18577656  0.83241465  0.11206470     0.13600
C1188       C  0.17517233  0.85175080  0.07218156    -0.20700
C1189       C  0.17992353  0.84533969  0.01789752    -0.07300
C1190       C  0.18891829  0.81696583  0.00275779     0.13600
C1191       C  0.19220927  0.80870615  0.94448609    -0.24100
H1192       H  0.21006785  0.77700050  0.03188483     0.14900
H1193       H  0.16715563  0.87333233  0.08344580     0.14900
C1194       C  0.18647682  0.84273356  0.16924651    -0.24000
H1195       H  0.19997348  0.78568093  0.94030997     0.05100
H1196       H  0.20935374  0.82246666  0.92456174     0.08300
H1197       H  0.16974751  0.81166057  0.92356843     0.08300
H1198       H  0.20174075  0.86145266  0.17227775     0.08300
H1199       H  0.19480511  0.82521770  0.19711478     0.08300
H1200       H  0.16320024  0.84977059  0.18204333     0.05100
C1201       C  0.47626358  0.76948514  0.30553000    -0.20700
C1202       C  0.46198079  0.74427146  0.28844252    -0.07300
C1203       C  0.45174541  0.74289417  0.23429106     0.13600
C1204       C  0.44919735  0.76857825  0.20375629    -0.20700
C1205       C  0.45560824  0.79534976  0.22709827    -0.07300
C1206       C  0.47372576  0.79506697  0.27441495     0.13600
C1207       C  0.48653393  0.82243955  0.29601875    -0.24100
H1208       H  0.48662351  0.77018951  0.34531499     0.14900
H1209       H  0.43674638  0.76807825  0.16588661     0.14900
C1210       C  0.44172152  0.71509214  0.20920151    -0.24000
H1211       H  0.47698977  0.82689796  0.33644606     0.05100
H1212       H  0.48073506  0.84122721  0.26914777     0.08300
H1213       H  0.01056491  0.81644641  0.29626861     0.08300
H1214       H  0.41992218  0.70806271  0.22714224     0.08300
H1215       H  0.45989354  0.69793396  0.21511147     0.08300
H1216       H  0.43768834  0.71780368  0.16510409     0.05100
C1217       C  0.14316953  0.79384768  0.34290966    -0.20700
C1218       C  0.16567265  0.77752305  0.31545983    -0.07300
C1219       C  0.16393848  0.77609426  0.25859253     0.13600
C1220       C  0.14211146  0.79360230  0.23032817    -0.20700
C1221       C  0.12064330  0.81118738  0.25762214    -0.07300
C1222       C  0.12038054  0.81034324  0.31479796     0.13600
C1223       C  0.09733443  0.82807953  0.34654896    -0.24100
H1224       H  0.14391493  0.79433565  0.38659788     0.14900
H1225       H  0.14133364  0.79305171  0.18664133     0.14900
C1226       C  0.18338101  0.75449774  0.22797765    -0.24000
H1227       H  0.07387541  0.82052192  0.33852753     0.05100
H1228       H  0.09860916  0.85136284  0.33505641     0.08300
H1229       H  0.10159109  0.82606446  0.39067794     0.08300
H1230       H  0.17828669  0.73228335  0.24235073     0.08300
H1231       H  0.20799296  0.75828959  0.23450528     0.08300
H1232       H  0.17866533  0.75575699  0.18391655     0.05100
C1233       C  0.48736976  0.82266020  0.61737916    -0.20700
C1234       C  0.48098201  0.82756232  0.67202802    -0.07300
C1235       C  0.50221932  0.81590908  0.71074868     0.13600
C1236       C  0.03385169  0.80425856  0.66825393    -0.20700
C1237       C  0.04326971  0.81190390  0.61626679    -0.07300
C1238       C  0.02090320  0.82049358  0.57761620     0.13600
C1239       C  0.02928264  0.82578828  0.51959987    -0.24100
H1240       H  0.47012404  0.82857277  0.58754921     0.14900
H1241       H  0.05086779  0.79578512  0.69690998     0.14900
C1242       C  0.49517703  0.81372800  0.77015468    -0.24000
H1243       H  0.00892525  0.83254691  0.49508370     0.05100
H1244       H  0.03935023  0.80556941  0.50236003     0.08300
H1245       H  0.04604424  0.84332914  0.51652917     0.08300
H1246       H  0.51443959  0.80312304  0.79322762     0.08300
H1247       H  0.47477038  0.80035011  0.77638463     0.08300
H1248       H  0.99779768  0.83354304  0.76546714     0.05100
C1249       C  0.45091612  0.64733235  0.80211967    -0.20700
C1250       C  0.45306428  0.65051383  0.85804836    -0.07300
C1251       C  0.45479913  0.62520865  0.89121370     0.13600
C1252       C  0.44959306  0.59808708  0.86804377    -0.20700
C1253       C  0.44077776  0.59601868  0.81368803    -0.07300
C1254       C  0.44297275  0.62094828  0.77975894     0.13600
C1255       C  0.43295655  0.62143844  0.72147788    -0.24100
H1256       H  0.45078595  0.66648163  0.77627456     0.14900
H1257       H  0.44808691  0.57910794  0.89390224     0.14900
C1258       C  0.46010643  0.62657093  0.95121035    -0.24000
H1259       H  0.43511310  0.64313831  0.70214260     0.05100
H1260       H  0.40856241  0.61563818  0.71798718     0.08300
H1261       H  0.44764968  0.60622086  0.69869001     0.08300
H1262       H  0.44008614  0.63708225  0.97121639     0.08300
H1263       H  0.48105897  0.63882413  0.95957341     0.08300
H1264       H  0.46335603  0.60456028  0.96949399     0.05100
C1265       C  0.49411064  0.76618548  0.04096629    -0.20700
C1266       C  0.47641557  0.78023991  0.00002114    -0.07300
C1267       C  0.47732633  0.81091768  0.99506078     0.13600
C1268       C  0.49482137  0.82646797  0.03198097    -0.20700
C1269       C  0.51132674  0.81242500  0.07395132    -0.07300
C1270       C  0.51142768  0.78191858  0.07803367     0.13600
C1271       C  0.01409294  0.76571341  0.13886631    -0.24100
H1272       H  0.49364852  0.74278675  0.04516139     0.19300
H1273       H  0.49508794  0.84993739  0.02888890     0.14900
C1274       C  0.46010991  0.82763786  0.95115922    -0.24000
H1275       H  0.00432243  0.74390765  0.14396622     0.05100
H1276       H  0.00545406  0.77959154  0.17199965     0.08300
H1277       H  0.03942993  0.76342190  0.14222072     0.08300
H1278       H  0.43505062  0.82560233  0.95657940     0.08300
H1279       H  0.46701746  0.81933980  0.91103110     0.08300
H1280       H  0.46492303  0.85113802  0.95188007     0.05100
In1281     In  0.91995729  0.23096176  0.90648816     1.36900
C1282       C  0.87395972  0.21806657  0.97287811     0.77200
O1283       O  0.94371098  0.20030684  0.85037516    -0.61300
O1284       O  0.93747341  0.18648926  0.93109755    -0.52200
C1285       C  0.89872223  0.25723390  0.81435519     0.69900
O1286       O  0.88216004  0.24274640  0.84547283    -0.47000
C1287       C  0.95935356  0.26344940  0.96120462     0.74600
O1288       O  0.88928190  0.24073464  0.97603486    -0.58900
O1289       O  0.96596126  0.23793082  0.94674611    -0.49000
O1290       O  0.88141509  0.20197779  0.93419385    -0.55300
C1291       C  0.94622392  0.17978571  0.88453847     0.84700
O1292       O  0.92612246  0.25849365  0.83017161    -0.57200
O1293       O  0.93285374  0.27221826  0.94701641    -0.60500
In1294     In  0.55659086  0.36795192  0.17061311     1.36900
C1295       C  0.56713785  0.40787312  0.09384957     0.77200
O1296       O  0.60459470  0.35172292  0.19122778    -0.61300
O1297       O  0.56757331  0.33203521  0.23130272    -0.52200
C1298       C  0.03044356  0.39669647  0.25359523     0.69900
O1299       O  0.05514642  0.40468559  0.23282261    -0.47000
C1300       C  0.03210878  0.33081589  0.10610453     0.74600
O1301       O  0.54101516  0.39994226  0.10776332    -0.58900
O1302       O  0.55813012  0.33087544  0.11127356    -0.49000
O1303       O  0.58887792  0.39663497  0.12175955    -0.55300
C1304       C  0.59624127  0.33318264  0.22570777     0.84700
O1305       O  0.01940985  0.37475143  0.23196740    -0.57200
O1306       O  0.01688827  0.34820663  0.13519462    -0.60500
In1307     In  0.78454779  0.29877118  0.16174654     1.36900
C1308       C  0.80146980  0.25162191  0.11154952     0.77200
O1309       O  0.73707138  0.28419431  0.15772342    -0.61300
O1310       O  0.75470010  0.31270310  0.09571178    -0.52200
C1311       C  0.76351832  0.33918068  0.22543498     0.69900
O1312       O  0.76371690  0.31243558  0.23972986    -0.47000
C1313       C  0.83924721  0.31442806  0.18306898     0.74600
O1314       O  0.79502732  0.25050235  0.16172784    -0.58900
O1315       O  0.82521494  0.32351879  0.14069771    -0.49000
O1316       O  0.79963178  0.27660163  0.08949088    -0.55300
C1317       C  0.73220279  0.29913258  0.11496618     0.84700
O1318       O  0.77407936  0.34461884  0.17892012    -0.57200
O1319       O  0.82521341  0.29660148  0.21284435    -0.60500
In1320     In  0.69154467  0.41415540  0.92661499     1.36900
C1321       C  0.63791108  0.43537531  0.95870136     0.77200
O1322       O  0.66969537  0.37174491  0.93642298    -0.61300
O1323       O  0.69862498  0.38804911  0.99959374    -0.52200
C1324       C  0.72749440  0.38592390  0.85806513     0.69900
O1325       O  0.70085237  0.39553713  0.84430624    -0.47000
C1326       C  0.72132419  0.46183082  0.91056394     0.74600
O1327       O  0.64255871  0.42663731  0.91077198    -0.58900
O1328       O  0.72507706  0.44728327  0.95413445    -0.49000
O1329       O  0.66137615  0.43507628  0.98887436    -0.55300
C1330       C  0.68124659  0.36828269  0.98315881     0.84700
O1331       O  0.73457510  0.39015991  0.90693482    -0.57200
O1332       O  0.70160051  0.45241168  0.87805199    -0.60500
In1333     In  0.84234198  0.08890130  0.12562885     1.36900
C1334       C  0.83316659  0.14458372  0.09028835     0.77200
O1335       O  0.88191416  0.07637606  0.07595204    -0.61300
O1336       O  0.83805029  0.06058114  0.05385898    -0.52200
C1337       C  0.87961098  0.06104086  0.19874171     0.69900
O1338       O  0.88612934  0.08552483  0.17855766    -0.47000
C1339       C  0.79056777  0.07522963  0.17250624     0.74600
O1340       O  0.84267091  0.13802910  0.13738231    -0.58900
O1341       O  0.79742653  0.06570676  0.12642722    -0.49000
O1342       O  0.82901849  0.12287465  0.06126618    -0.55300
C1343       C  0.86664318  0.06019772  0.04597345     0.84700
O1344       O  0.85439021  0.05198363  0.18242995    -0.57200
O1345       O  0.80895477  0.09315408  0.19144732    -0.60500
In1346     In  0.97970378  0.96132803  0.85129580     1.36900
C1347       C  0.52424055  0.95801882  0.92755180     0.77200
O1348       O  0.94844938  0.96105115  0.92147585    -0.61300
O1349       O  0.94153045  0.99397579  0.86127120    -0.52200
C1350       C  0.01423916  0.99365084  0.79017375     0.69900
O1351       O  0.01956306  0.96680234  0.79645188    -0.47000
C1352       C  0.96474543  0.42615034  0.78694678     0.74600
O1353       O  0.51064894  0.98197503  0.91811983    -0.58900
O1354       O  0.96939250  0.42181400  0.83664869    -0.49000
O1355       O  0.52003577  0.43965694  0.89588372    -0.55300
C1356       C  0.93477625  0.98443127  0.90733770     0.84700
O1357       O  0.99100504  0.00373935  0.81424675    -0.57200
O1358       O  0.46378224  0.45601553  0.77280358    -0.60500
In1359     In  0.59700314  0.04312496  0.15007835     1.36900
C1360       C  0.58817710  0.50191510  0.07924100     0.77200
O1361       O  0.54751579  0.05392193  0.17482098    -0.61300
O1362       O  0.58296278  0.07764781  0.20926666    -0.52200
C1363       C  0.62376876  0.01563676  0.23442812     0.69900
O1364       O  0.59660480  0.01095579  0.21984829    -0.47000
C1365       C  0.62782564  0.07980317  0.08564397     0.74600
O1366       O  0.61181647  0.50162414  0.10861929    -0.58900
O1367       O  0.59911212  0.07791763  0.08460944    -0.49000
O1368       O  0.57007711  0.52330182  0.08680290    -0.55300
C1369       C  0.55469787  0.07296641  0.20826448     0.84700
O1370       O  0.63732326  0.03380026  0.20529024    -0.57200
O1371       O  0.64063578  0.06370521  0.12108143    -0.60500
In1372     In  0.73741060  0.17705679  0.87144043     1.36900
C1373       C  0.77610874  0.19183424  0.95110140     0.77200
O1374       O  0.73069058  0.22400616  0.84367467    -0.61300
O1375       O  0.69575330  0.19471884  0.82681681    -0.52200
C1376       C  0.76142759  0.15299569  0.78112976     0.69900
O1377       O  0.77230456  0.17483770  0.80346421    -0.47000
C1378       C  0.70191685  0.14610045  0.93726313     0.74600
O1379       O  0.78178048  0.17084062  0.92024063    -0.58900
O1380       O  0.69301034  0.16960633  0.91512837    -0.49000
O1381       O  0.75180866  0.20609232  0.93906848    -0.55300
C1382       C  0.70489054  0.22026029  0.82174255     0.84700
O1383       O  0.73899338  0.14272764  0.80592299    -0.57200
O1384       O  0.72841402  0.13744909  0.92355462    -0.60500
C1385       C  0.55267433  0.45587192  0.96866928     0.86100
C1386       C  0.54750592  0.43185814  0.01028796    -0.54100
C1387       C  0.57070456  0.42806839  0.04734593     0.09000
C1388       C  0.59758131  0.44871248  0.03804844     0.20000
C1389       C  0.55844053  0.48287041  0.00244922    -0.54900
C1390       C  0.58169814  0.47922039  0.03932118     0.09100
C1391       C  0.58331164  0.44817408  0.94261363    -0.54400
C1392       C  0.60702589  0.44439160  0.97806140     0.09700
H1393       H  0.52671853  0.41950724  0.01129648     0.14200
H1394       H  0.61661565  0.44554010  0.06767426     0.00000
H1395       H  0.54142989  0.00187942  0.99790711     0.14500
H1396       H  0.58592548  0.44568848  0.89933322     0.14300
C1397       C  0.81091347  0.22604496  0.07774106     0.86100
C1398       C  0.84017431  0.23248303  0.04719149    -0.54100
C1399       C  0.84891607  0.21198751  0.01106463     0.09000
C1400       C  0.82787806  0.18546462  0.01081029     0.20000
C1401       C  0.78705350  0.22019106  0.03367334    -0.54900
C1402       C  0.79573835  0.19913029  0.99814027     0.09100
C1403       C  0.81756932  0.19661450  0.10573692    -0.54400
C1404       C  0.82652430  0.17504369  0.07104830     0.09700
H1405       H  0.85209579  0.25266425  0.05174066     0.14200
H1406       H  0.83521769  0.16831045  0.98220320     0.00000
H1407       H  0.76534981  0.23231299  0.03025935     0.14500
H1408       H  0.81515279  0.19306925  0.14886803     0.14300
In1409     In  0.57079659  0.04931716  0.69627371     1.36900
C1410       C  0.57700295  0.50838881  0.61328669     0.77200
O1411       O  0.02372602  0.07178813  0.67559086    -0.61300
O1412       O  0.56862277  0.08377060  0.63207733    -0.52200
C1413       C  0.03323486  0.01173165  0.75670371     0.69900
O1414       O  0.05727480  0.00205587  0.73440771    -0.47000
C1415       C  0.61417501  0.07040158  0.76008997     0.74600
O1416       O  0.55284110  0.52372219  0.61855049    -0.58900
O1417       O  0.58784350  0.06424633  0.77598479    -0.49000
O1418       O  0.59875629  0.51501769  0.64408729    -0.55300
C1419       C  0.03617498  0.08751962  0.64080234     0.84700
O1420       O  0.02639080  0.03806245  0.74722296    -0.57200
O1421       O  0.61815119  0.06689645  0.71023350    -0.60500
In1422     In  0.94262325  0.17688747  0.39742409     1.36900
C1423       C  0.89223796  0.19556169  0.45087569     0.77200
O1424       O  0.94646592  0.14283430  0.45969035    -0.61300
O1425       O  0.97619258  0.17872383  0.46473268    -0.52200
C1426       C  0.96811812  0.13702763  0.33274561     0.69900
O1427       O  0.93911268  0.14080508  0.33521462    -0.47000
C1428       C  0.95598389  0.21886891  0.32979158     0.74600
O1429       O  0.89139509  0.17391440  0.41971452    -0.58900
O1430       O  0.97007712  0.21527007  0.37422417    -0.49000
O1431       O  0.91753511  0.20809377  0.45043166    -0.55300
C1432       C  0.96779706  0.15485757  0.48479053     0.84700
O1433       O  0.98289863  0.15268170  0.36432233    -0.57200
O1434       O  0.93386619  0.20225642  0.32260493    -0.60500
In1435     In  0.86388612  0.29849144  0.67443864     1.36900
C1436       C  0.85046978  0.25907647  0.59942245     0.77200
O1437       O  0.81367000  0.31049831  0.68751672    -0.61300
O1438       O  0.84749972  0.33165950  0.73337004    -0.52200
C1439       C  0.88689147  0.27148461  0.76403186     0.69900
O1440       O  0.86023061  0.26772857  0.74615552    -0.47000
C1441       C  0.89591572  0.33492460  0.61265944     0.74600
O1442       O  0.87218770  0.25600425  0.63288660    -0.58900
O1443       O  0.87188044  0.34263722  0.63693792    -0.49000
O1444       O  0.83451791  0.28213090  0.60520674    -0.55300
C1445       C  0.81934059  0.32824011  0.72451273     0.84700
O1446       O  0.90228654  0.28855944  0.73548222    -0.57200
O1447       O  0.90472811  0.30918454  0.62294855    -0.60500
In1448     In  0.49072227  0.44008568  0.38348905     1.36900
C1449       C  0.53268380  0.45076353  0.46049275     0.77200
O1450       O  0.48836631  0.48383879  0.33782730    -0.61300
O1451       O  0.94669849  0.45832248  0.35094035    -0.52200
C1452       C  0.01604271  0.41140060  0.29993608     0.69900
O1453       O  0.02755457  0.43297117  0.32222856    -0.47000
C1454       C  0.95691627  0.40512615  0.45124967     0.74600
O1455       O  0.53493849  0.42942533  0.42952414    -0.58900
O1456       O  0.95912015  0.43216411  0.45632534    -0.49000
O1457       O  0.50958511  0.46722488  0.45094743    -0.55300
C1458       C  0.95865291  0.48089780  0.33255217     0.84700
O1459       O  0.99150016  0.40320980  0.32115074    -0.57200
O1460       O  0.97077139  0.39525321  0.41060392    -0.60500
In1461     In  0.62337670  0.35028470  0.61784495     1.36900
C1462       C  0.60347964  0.40299506  0.58569319     0.77200
O1463       O  0.67131882  0.36490507  0.61714939    -0.61300
O1464       O  0.65458457  0.33898128  0.55214602    -0.52200
C1465       C  0.64524058  0.31256559  0.69215308     0.69900
O1466       O  0.64094740  0.33939196  0.70261501    -0.47000
C1467       C  0.56997709  0.32653386  0.61792336     0.74600
O1468       O  0.61016849  0.39693321  0.63475659    -0.58900
O1469       O  0.58803766  0.32291824  0.57841633    -0.49000
O1470       O  0.60684713  0.38202390  0.55377176    -0.55300
C1471       C  0.67699497  0.35126042  0.57423921     0.84700
O1472       O  0.63790503  0.30578812  0.64459795    -0.57200
O1473       O  0.57953290  0.34235225  0.65548719    -0.60500
In1474     In  0.73481035  0.23795009  0.39613967     1.36900
C1475       C  0.78530011  0.22174073  0.44724596     0.77200
O1476       O  0.75256866  0.28158479  0.40778720    -0.61300
O1477       O  0.72402125  0.26152624  0.46868920    -0.52200
C1478       C  0.69053220  0.26543826  0.34158589     0.69900
O1479       O  0.71790223  0.26314752  0.32379032    -0.47000
C1480       C  0.71937405  0.18983871  0.35184246     0.74600
O1481       O  0.78602044  0.23287643  0.39985355    -0.58900
O1482       O  0.70918844  0.19712632  0.39796419    -0.49000
O1483       O  0.75888626  0.21580140  0.46486126    -0.55300
C1484       C  0.73955420  0.28317408  0.45360625     0.84700
O1485       O  0.68634221  0.25397151  0.38782234    -0.57200
O1486       O  0.73899434  0.20653136  0.33149840    -0.60500
In1487     In  0.79978550  0.11624864  0.64196958     1.36900
C1488       C  0.81799789  0.15908260  0.57695286     0.77200
O1489       O  0.84853875  0.10538893  0.66428508    -0.61300
O1490       O  0.81387913  0.08083222  0.70126456    -0.52200
C1491       C  0.77410931  0.14054305  0.73060158     0.69900
O1492       O  0.79765875  0.15003723  0.70799139    -0.47000
C1493       C  0.77091785  0.08195510  0.57310501     0.74600
O1494       O  0.79172392  0.15882777  0.59793867    -0.58900
O1495       O  0.79920352  0.07974324  0.58265840    -0.49000
O1496       O  0.83449482  0.13674443  0.58673670    -0.55300
C1497       C  0.84192459  0.08632356  0.69873791     0.84700
O1498       O  0.76275222  0.11933466  0.70673696    -0.57200
O1499       O  0.75734135  0.10163542  0.59955272    -0.60500
In1500     In  0.66555830  0.97771336  0.37076791     1.36900
C1501       C  0.62814721  0.97005232  0.45499100     0.77200
O1502       O  0.67095931  0.43412226  0.34127563    -0.61300
O1503       O  0.71070061  0.45883153  0.33488406    -0.52200
C1504       C  0.63847528  0.00156728  0.28209076     0.69900
O1505       O  0.62475382  0.98501458  0.31397959    -0.47000
C1506       C  0.70267432  0.01026577  0.42777782     0.74600
O1507       O  0.63615657  0.99440313  0.43787115    -0.58900
O1508       O  0.68098712  0.02059132  0.39894868    -0.49000
O1509       O  0.64098262  0.45002337  0.42378295    -0.55300
C1510       C  0.69862526  0.43471500  0.32728396     0.84700
O1511       O  0.66590367  0.00555858  0.29496601    -0.57200
O1512       O  0.70694531  0.98313295  0.42462733    -0.60500
C1513       C  0.57997372  0.48391588  0.57420595     0.86100
C1514       C  0.60511180  0.48903497  0.53307210    -0.54100
C1515       C  0.60922670  0.46717229  0.49714018     0.09000
C1516       C  0.58788219  0.44160337  0.50653990     0.20000
C1517       C  0.55135143  0.47826094  0.53984330    -0.54900
C1518       C  0.55551779  0.45639394  0.50353572     0.09100
C1519       C  0.58858850  0.45479805  0.60156991    -0.54400
C1520       C  0.59299789  0.43246783  0.56668764     0.09700
H1521       H  0.61681857  0.00948380  0.53547831     0.14200
H1522       H  0.59143174  0.42376017  0.47737022     0.00000
H1523       H  0.53029810  0.49138112  0.54193033     0.14500
H1524       H  0.59160905  0.45227675  0.64492960     0.14300
C1525       C  0.84408970  0.23603595  0.55820945     0.86100
C1526       C  0.87159027  0.22796056  0.52258214    -0.54100
C1527       C  0.86688091  0.20573202  0.48743722     0.09000
C1528       C  0.83416672  0.19334286  0.49213775     0.20000
C1529       C  0.81764625  0.24241516  0.51822860    -0.54900
C1530       C  0.81237878  0.22019409  0.48341829     0.09100
C1531       C  0.83575903  0.20795417  0.58643012    -0.54400
C1532       C  0.83020650  0.18568990  0.55292579     0.09700
H1533       H  0.89315856  0.23898973  0.52534809     0.14200
H1534       H  0.82961336  0.17513967  0.46465846     0.00000
H1535       H  0.80364500  0.26230809  0.51845903     0.14500
H1536       H  0.83326726  0.20609175  0.62996837     0.14300
C1537       C  0.72245445  0.06477589  0.53454313    -0.20700
C1538       C  0.75461138  0.06312807  0.53475695    -0.07300
C1539       C  0.76983228  0.04366746  0.49897942     0.13600
C1540       C  0.75237848  0.02640817  0.46472457    -0.20700
C1541       C  0.72029424  0.02846137  0.46458984    -0.07300
C1542       C  0.70519205  0.04765759  0.50033849     0.13600
C1543       C  0.67080956  0.04880986  0.50524287    -0.24100
H1544       H  0.71057852  0.07924147  0.56208781     0.14900
H1545       H  0.76379330  0.01158078  0.43723857     0.14900
C1546       C  0.80428044  0.04109016  0.49575749    -0.24000
H1547       H  0.66285171  0.06387581  0.53719594     0.05100
H1548       H  0.66315640  0.02684391  0.51598776     0.08300
H1549       H  0.65989861  0.05616325  0.46675651     0.08300
H1550       H  0.81394290  0.03321218  0.53498562     0.08300
H1551       H  0.81367168  0.06250272  0.48512555     0.08300
H1552       H  0.81194190  0.02548313  0.46447400     0.05100
C1553       C  0.74144719  0.30447124  0.54288551    -0.20700
C1554       C  0.74018714  0.30899233  0.48700736    -0.07300
C1555       C  0.72945067  0.33599352  0.46603386     0.13600
C1556       C  0.71284844  0.35464028  0.49997515    -0.20700
C1557       C  0.70795267  0.34653906  0.55373735    -0.07300
C1558       C  0.72573580  0.32349895  0.57698926     0.13600
C1559       C  0.72457696  0.31590682  0.63613832    -0.24100
H1560       H  0.75118695  0.28426672  0.55926414     0.14900
H1561       H  0.69994145  0.37303373  0.48277477     0.14900
C1562       C  0.73185177  0.34344779  0.40715845    -0.24000
H1563       H  0.74826025  0.31359409  0.65253514     0.05100
H1564       H  0.71287466  0.29508219  0.64205773     0.08300
H1565       H  0.71243195  0.33298524  0.65939269     0.08300
H1566       H  0.71811177  0.32843023  0.38296256     0.08300
H1567       H  0.75620803  0.34188033  0.39453712     0.08300
H1568       H  0.72332375  0.36598233  0.39901784     0.05100
C1569       C  0.92799477  0.39999550  0.53730009    -0.20700
C1570       C  0.94039034  0.38673665  0.49107280    -0.07300
C1571       C  0.93770753  0.35632200  0.48553183     0.13600
C1572       C  0.92331073  0.34029617  0.52621599    -0.20700
C1573       C  0.91132220  0.35354820  0.57244686    -0.07300
C1574       C  0.91335519  0.38390156  0.57773536     0.13600
C1575       C  0.90076072  0.39941643  0.62630505    -0.24100
H1576       H  0.92990932  0.42318108  0.54215698     0.14900
H1577       H  0.92126742  0.31707953  0.52176997     0.14900
C1578       C  0.94957175  0.34033538  0.43695321    -0.24000
H1579       H  0.90596159  0.42283480  0.62540004     0.05100
H1580       H  0.91096793  0.38971331  0.66363507     0.08300
H1581       H  0.87548233  0.39767670  0.62758498     0.08300
H1582       H  0.46941621  0.34460906  0.42951010     0.08300
H1583       H  0.93795044  0.34913553  0.40000512     0.08300
H1584       H  0.94519466  0.31676166  0.43948002     0.05100
C1585       C  0.01334411  0.14855523  0.54369460    -0.20700
C1586       C  0.98311552  0.14105922  0.53190212    -0.07300
C1587       C  0.96926442  0.11901224  0.56254135     0.13600
C1588       C  0.98704765  0.10316466  0.60016506    -0.20700
C1589       C  0.01813145  0.10874303  0.60813277    -0.07300
C1590       C  0.03115452  0.13256045  0.58145498     0.13600
C1591       C  0.57025652  0.14512179  0.59075078    -0.24100
H1592       H  0.02365960  0.16602587  0.52127408     0.14900
H1593       H  0.97691734  0.08518507  0.62135319     0.14900
C1594       C  0.93596667  0.11172539  0.55600797    -0.24000
H1595       H  0.57561757  0.16440643  0.56563110     0.05100
H1596       H  0.58505468  0.12672902  0.57691273     0.08300
H1597       H  0.57589856  0.14996740  0.63335464     0.08300
H1598       H  0.93199882  0.10186033  0.51612079     0.08300
H1599       H  0.92126040  0.13165156  0.56023028     0.08300
H1600       H  0.92871579  0.09582954  0.58711586     0.05100
C1601       C  0.69297641  0.08484598  0.81609989    -0.20700
C1602       C  0.69223204  0.06649177  0.86182021    -0.07300
C1603       C  0.66324783  0.05757379  0.88092352     0.13600
C1604       C  0.63699696  0.06413725  0.85002811    -0.20700
C1605       C  0.63907765  0.07681714  0.79864184    -0.07300
C1606       C  0.66674791  0.08970582  0.78351852     0.13600
C1607       C  0.66907969  0.10760004  0.73254609    -0.24100
H1608       H  0.71495256  0.09184771  0.80169669     0.14900
H1609       H  0.61537120  0.05543612  0.86274829     0.14900
C1610       C  0.65964021  0.03735259  0.92887424    -0.24000
H1611       H  0.69189867  0.11744553  0.72901563     0.05100
H1612       H  0.65142811  0.12547733  0.73268554     0.08300
H1613       H  0.66581730  0.09396844  0.69661350     0.08300
H1614       H  0.66787008  0.04734005  0.96634080     0.08300
H1615       H  0.67208815  0.01645643  0.92187300     0.08300
H1616       H  0.63531639  0.03208689  0.93586788     0.05100
C1617       C  0.69371434  0.27289123  0.80181468    -0.20700
C1618       C  0.68717932  0.24377883  0.79181276    -0.07300
C1619       C  0.66476996  0.23787656  0.75204837     0.13600
C1620       C  0.65093175  0.26093631  0.72202812    -0.20700
C1621       C  0.65814991  0.29001025  0.73081326    -0.07300
C1622       C  0.67919626  0.29598719  0.77258691     0.13600
C1623       C  0.68744626  0.32648457  0.78534007    -0.24100
H1624       H  0.71055676  0.27764252  0.83246871     0.14900
H1625       H  0.63454304  0.25611582  0.69064140     0.14900
C1626       C  0.65592175  0.20735103  0.73926415    -0.24000
H1627       H  0.69728251  0.33668258  0.74906464     0.05100
H1628       H  0.70470359  0.32711271  0.81828890     0.08300
H1629       H  0.66676849  0.33911263  0.79827663     0.08300
H1630       H  0.64554179  0.19709355  0.77524986     0.08300
H1631       H  0.67643968  0.19439164  0.72653378     0.08300
H1632       H  0.63878179  0.20687785  0.70601714     0.05100
C1633       C  0.71097504  0.13107520  0.24766796    -0.20700
C1634       C  0.70006045  0.10851921  0.28011324    -0.07300
C1635       C  0.68776952  0.11522834  0.33103019     0.13600
C1636       C  0.69262332  0.14275640  0.35257096    -0.20700
C1637       C  0.70929301  0.16353016  0.32379461    -0.07300
C1638       C  0.71657649  0.15824317  0.26903076     0.13600
C1639       C  0.73194072  0.18006666  0.23311276    -0.24100
H1640       H  0.71938496  0.12625810  0.20759469     0.14900
H1641       H  0.68513667  0.14717845  0.39332944     0.14900
C1642       C  0.67142132  0.09314630  0.36433858    -0.24000
H1643       H  0.73386099  0.17253904  0.19083964     0.05100
H1644       H  0.75558071  0.18364812  0.24772239     0.08300
H1645       H  0.71842597  0.20081486  0.23225876     0.08300
H1646       H  0.64785595  0.10145507  0.37317998     0.08300
H1647       H  0.68388862  0.08921229  0.40299852     0.08300
H1648       H  0.66959116  0.07227487  0.34294978     0.05100
C1649       C  0.51916018  0.11046928  0.33014635    -0.20700
C1650       C  0.98487469  0.11611360  0.29708860    -0.07300
C1651       C  0.97989651  0.11424191  0.24056098     0.13600
C1652       C  0.50214424  0.09476769  0.22645140    -0.20700
C1653       C  0.53225207  0.08803886  0.24455028    -0.07300
C1654       C  0.54048082  0.09553564  0.29778187     0.13600
C1655       C  0.57159537  0.08752197  0.32152556    -0.24100
H1656       H  0.52600576  0.11647760  0.37049591     0.14900
H1657       H  0.49557374  0.08872799  0.18600363     0.14900
C1658       C  0.95457416  0.13095391  0.21119506    -0.24000
H1659       H  0.57325378  0.09342111  0.36471730     0.05100
H1660       H  0.58970252  0.09921522  0.29976642     0.08300
H1661       H  0.57602897  0.06374357  0.31878444     0.08300
H1662       H  0.94027298  0.14475353  0.23779195     0.08300
H1663       H  0.96463661  0.14525650  0.18005543     0.08300
H1664       H  0.93974706  0.60661679  0.20725944     0.05100
C1665       C  0.65367023  0.12176369  0.96024408    -0.20700
C1666       C  0.68279601  0.13031521  0.97640867    -0.07300
C1667       C  0.69284188  0.12420575  0.02979006     0.13600
C1668       C  0.67407209  0.10840615  0.06479159    -0.20700
C1669       C  0.64534561  0.09865591  0.04807546    -0.07300
C1670       C  0.63480913  0.10604125  0.99520883     0.13600
C1671       C  0.60412105  0.09684269  0.97456642    -0.24100
H1672       H  0.64590905  0.12690129  0.91950013     0.14900
H1673       H  0.68182964  0.10379950  0.10566365     0.14900
C1674       C  0.72313613  0.13468655  0.05007730    -0.24000
H1675       H  0.60020598  0.10359952  0.93184372     0.05100
H1676       H  0.58551633  0.10701339  0.99886536     0.08300
H1677       H  0.60279376  0.07286873  0.97697639     0.08300
H1678       H  0.72368055  0.15865880  0.04572882     0.08300
H1679       H  0.74219641  0.12469768  0.02660417     0.08300
H1680       H  0.72698191  0.12900144  0.09332350     0.05100
C1681       C  0.89243758  0.06258761  0.72097267    -0.20700
C1682       C  0.86467001  0.07534191  0.73845109    -0.07300
C1683       C  0.86195374  0.08439921  0.79232493     0.13600
C1684       C  0.88840982  0.08565455  0.82404680    -0.20700
C1685       C  0.91740849  0.07843760  0.80261047    -0.07300
C1686       C  0.91871621  0.06281856  0.75400365     0.13600
C1687       C  0.94761076  0.04750221  0.73563714    -0.24100
H1688       H  0.89415037  0.05425098  0.68039627     0.14900
H1689       H  0.88676003  0.09623948  0.86273137     0.14900
C1690       C  0.83202515  0.09643496  0.81411970    -0.24000
H1691       H  0.95408436  0.05544254  0.69498202     0.05100
H1692       H  0.94373842  0.02387666  0.73331629     0.08300
H1693       H  0.96679555  0.05076696  0.76419577     0.08300
H1694       H  0.81433531  0.07970534  0.81206987     0.08300
H1695       H  0.82436381  0.11582364  0.79020060     0.08300
H1696       H  0.83416466  0.10323544  0.85669899     0.05100
C1697       C  0.97787052  0.40569577  0.69991088    -0.20700
C1698       C  0.96155621  0.40260276  0.74786692    -0.07300
C1699       C  0.94736056  0.37613004  0.75933654     0.13600
C1700       C  0.95251380  0.35251402  0.72474974    -0.20700
C1701       C  0.97329267  0.35434907  0.68175522    -0.07300
C1702       C  0.98483197  0.38193137  0.66754767     0.13600
C1703       C  0.00691356  0.38654389  0.62165071    -0.24100
H1704       H  0.98815144  0.42625712  0.69061544     0.14900
H1705       H  0.94279328  0.33180699  0.73444817     0.14900
C1706       C  0.92733328  0.37254218  0.80804641    -0.24000
H1707       H  0.01412173  0.40938719  0.61846239     0.05100
H1708       H  0.99592302  0.38143339  0.58262950     0.08300
H1709       H  0.02804284  0.37294506  0.62805984     0.08300
H1710       H  0.90845446  0.38925547  0.80695308     0.08300
H1711       H  0.43819981  0.37751380  0.84087348     0.08300
H1712       H  0.41221128  0.35506236  0.80554523     0.05100
C1713       C  0.90885838  0.50534989  0.30704523    -0.20700
C1714       C  0.94078906  0.50347986  0.30035438    -0.07300
C1715       C  0.95086893  0.02062092  0.25529529     0.13600
C1716       C  0.93161982  0.04091370  0.22670914    -0.20700
C1717       C  0.89989519  0.04307340  0.23613985    -0.07300
C1718       C  0.88757874  0.02536052  0.27742867     0.13600
C1719       C  0.85413729  0.02776571  0.29240098    -0.24100
H1720       H  0.89841806  0.49183593  0.33747323     0.14900
H1721       H  0.44356230  0.05493364  0.19934430     0.14900
C1722       C  0.48638638  0.02056341  0.24992019    -0.24000
H1723       H  0.84958027  0.51041262  0.31853534     0.05100
H1724       H  0.83957123  0.02051353  0.25868793     0.08300
H1725       H  0.84786388  0.05059459  0.30228784     0.08300
H1726       H  0.49215524  0.49663367  0.22954446     0.08300
H1727       H  0.50084027  0.02771486  0.28392839     0.08300
H1728       H  0.49203497  0.03370704  0.21373647     0.05100
C1729       C  0.76690258  0.06653580  0.26010774    -0.20700
C1730       C  0.76373734  0.06653482  0.20394688    -0.07300
C1731       C  0.73424085  0.06401566  0.18129901     0.13600
C1732       C  0.70862701  0.06990979  0.21415732    -0.20700
C1733       C  0.71303823  0.07931705  0.26739161    -0.07300
C1734       C  0.74148937  0.07212574  0.29265300     0.13600
C1735       C  0.74661582  0.07581052  0.35223683    -0.24100
H1736       H  0.78964071  0.06571131  0.27804540     0.14900
H1737       H  0.68628256  0.07322234  0.19547291     0.14900
C1738       C  0.72990113  0.05796658  0.12246363    -0.24000
H1739       H  0.76989217  0.06790031  0.36496601     0.05100
H1740       H  0.72979425  0.06298686  0.37468176     0.08300
H1741       H  0.74426443  0.09897362  0.36332578     0.08300
H1742       H  0.74205787  0.03725351  0.11237500     0.08300
H1743       H  0.73923484  0.07584650  0.09786618     0.08300
H1744       H  0.70534457  0.05578843  0.11192669     0.05100
C1745       C  0.90828461  0.02539038  0.02917104    -0.20700
C1746       C  0.88209358  0.04016065  0.00905091    -0.07300
C1747       C  0.87173174  0.03509536  0.95614153     0.13600
C1748       C  0.88894050  0.01607056  0.92354563    -0.20700
C1749       C  0.91518534  0.00121275  0.94400348    -0.07300
C1750       C  0.92484049  0.00574543  0.99767020     0.13600
C1751       C  0.46898737  0.02255716  0.98574914    -0.24100
H1752       H  0.91580280  0.02919715  0.07020169     0.14900
H1753       H  0.88204881  0.01287914  0.88201732     0.14900
C1754       C  0.84335301  0.05031809  0.93367533    -0.24000
H1755       H  0.47700541  0.03583358  0.01979567     0.05100
H1756       H  0.48110181  0.02970326  0.94888205     0.08300
H1757       H  0.47521273  0.99955331  0.99538221     0.08300
H1758       H  0.84572376  0.07414035  0.93630052     0.08300
H1759       H  0.82299943  0.04382769  0.95700884     0.08300
H1760       H  0.83938814  0.04474622  0.89081332     0.05100
C1761       C  0.77322569  0.35362035  0.84521383    -0.20700
C1762       C  0.74951578  0.37075226  0.82121819    -0.07300
C1763       C  0.74879812  0.37384143  0.76414897     0.13600
C1764       C  0.77131086  0.35913994  0.73306302    -0.20700
C1765       C  0.79524322  0.34260178  0.75767247    -0.07300
C1766       C  0.79620995  0.33996917  0.81446926     0.13600
C1767       C  0.82121369  0.32224680  0.84302901    -0.24100
H1768       H  0.77404704  0.35107285  0.88872434     0.14900
H1769       H  0.77088084  0.36139241  0.68949449     0.14900
C1770       C  0.72550026  0.39361086  0.73584064    -0.24000
H1771       H  0.81767959  0.32141004  0.88734289     0.05100
H1772       H  0.84379216  0.33193715  0.83573699     0.08300
H1773       H  0.82163023  0.29964508  0.82810749     0.08300
H1774       H  0.72762744  0.41608176  0.75051919     0.08300
H1775       H  0.70192791  0.38640560  0.74353022     0.08300
H1776       H  0.72889763  0.39394438  0.69147108     0.05100
C1777       C  0.72868505  0.02872430  0.83399064    -0.20700
C1778       C  0.72022724  0.04835593  0.87437751    -0.07300
C1779       C  0.72895760  0.04136346  0.92795722     0.13600
C1780       C  0.73675172  0.51128674  0.93520418    -0.20700
C1781       C  0.73705491  0.48882875  0.89754614    -0.07300
C1782       C  0.73536672  0.99976385  0.84754178     0.13600
C1783       C  0.75004545  0.47307179  0.80182524    -0.24100
H1784       H  0.72496068  0.03449874  0.79185851     0.14900
H1785       H  0.73582489  0.50626576  0.97797020     0.14900
C1786       C  0.73027566  0.06444595  0.96972013    -0.24000
H1787       H  0.76068308  0.98545561  0.77828570     0.05100
H1788       H  0.73112805  0.47156996  0.77195647     0.08300
H1789       H  0.75437359  0.45141820  0.82099688     0.08300
H1790       H  0.70782191  0.07584930  0.97313545     0.08300
H1791       H  0.74764619  0.08036298  0.95791520     0.08300
H1792       H  0.73684400  0.05507822  0.00965082     0.05100
C1793       C  0.74584922  0.41300591  0.28608196    -0.20700
C1794       C  0.71565676  0.40939001  0.30397634    -0.07300
C1795       C  0.70279555  0.38164574  0.29975953     0.13600
C1796       C  0.72048216  0.35853275  0.27887864    -0.20700
C1797       C  0.74978525  0.36259898  0.25836123    -0.07300
C1798       C  0.76301097  0.39007230  0.26314335     0.13600
C1799       C  0.79538693  0.39581770  0.24605118    -0.24100
H1800       H  0.75620371  0.43395955  0.28958899     0.14900
H1801       H  0.71078614  0.33725771  0.27655407     0.14900
C1802       C  0.67055899  0.37576903  0.31705656    -0.24000
H1803       H  0.79507024  0.41243959  0.21322993     0.05100
H1804       H  0.80795887  0.37615404  0.23186993     0.08300
H1805       H  0.80842169  0.40408447  0.28092799     0.08300
H1806       H  0.65394151  0.38936757  0.29296131     0.08300
H1807       H  0.66781004  0.38007504  0.36073372     0.08300
H1808       H  0.66501740  0.35287492  0.31046303     0.05100
C1809       C  0.91322722  0.32094365  0.25826695    -0.20700
C1810       C  0.93340106  0.31480647  0.21555096    -0.07300
C1811       C  0.92281510  0.31987505  0.16220594     0.13600
C1812       C  0.89140119  0.32394880  0.15256187    -0.20700
C1813       C  0.87072437  0.32233708  0.19533842    -0.07300
C1814       C  0.88166064  0.32350583  0.24893252     0.13600
C1815       C  0.86033743  0.32536962  0.29655901    -0.24100
H1816       H  0.92116599  0.31848570  0.29959830     0.14900
H1817       H  0.88301666  0.32464159  0.11128063     0.14900
C1818       C  0.94378478  0.31761989  0.11485329    -0.24000
H1819       H  0.87308356  0.32860539  0.33481822     0.05100
H1820       H  0.84766761  0.30505393  0.30135767     0.08300
H1821       H  0.84386622  0.34400552  0.29090872     0.08300
H1822       H  0.96770530  0.31323677  0.12832843     0.08300
H1823       H  0.94269946  0.33836335  0.09159637     0.08300
H1824       H  0.93676171  0.29976666  0.08829472     0.05100
C1825       C  0.69868878  0.29530375  0.03754399    -0.20700
C1826       C  0.70189281  0.30387077  0.09122659    -0.07300
C1827       C  0.68507813  0.32836554  0.10951854     0.13600
C1828       C  0.67208539  0.34761856  0.07159545    -0.20700
C1829       C  0.67631218  0.34266494  0.01666818    -0.07300
C1830       C  0.68624697  0.31498335  0.99917717     0.13600
C1831       C  0.68778814  0.30781163  0.94016778    -0.24100
H1832       H  0.71094896  0.27592253  0.02410678     0.14900
H1833       H  0.66330735  0.36862881  0.08471821     0.14900
C1834       C  0.68702287  0.33827723  0.16679799    -0.24000
H1835       H  0.69622552  0.28513648  0.93392002     0.05100
H1836       H  0.70360984  0.32251769  0.91919043     0.08300
H1837       H  0.66457843  0.31033055  0.92180387     0.08300
H1838       H  0.70186340  0.35733706  0.16881597     0.08300
H1839       H  0.69646939  0.32079473  0.19363734     0.08300
H1840       H  0.66394700  0.34478461  0.18150453     0.05100
C1841       C  0.97649031  0.26729795  0.30813243    -0.20700
C1842       C  0.96362501  0.24160024  0.29011184    -0.07300
C1843       C  0.95521483  0.23956236  0.23516421     0.13600
C1844       C  0.95260608  0.26497456  0.20396411    -0.20700
C1845       C  0.95749191  0.29205293  0.22733092    -0.07300
C1846       C  0.97416815  0.29260517  0.27620213     0.13600
C1847       C  0.98616241  0.32038486  0.29760162    -0.24100
H1848       H  0.98552537  0.26848714  0.34883147     0.14900
H1849       H  0.94181318  0.26385697  0.16465371     0.14900
C1850       C  0.94783961  0.21110928  0.20962152    -0.24000
H1851       H  0.97551499  0.32528531  0.33698371     0.05100
H1852       H  0.98098025  0.33882211  0.26951429     0.08300
H1853       H  0.51206103  0.31770807  0.30590793     0.08300
H1854       H  0.92622906  0.20264204  0.22585305     0.08300
H1855       H  0.96703281  0.19519894  0.21726757     0.08300
H1856       H  0.94482435  0.21347283  0.16523645     0.05100
C1857       C  0.64376597  0.29799489  0.34029653    -0.20700
C1858       C  0.66512393  0.28093758  0.31144895    -0.07300
C1859       C  0.66152338  0.27894228  0.25490066     0.13600
C1860       C  0.63852737  0.29590877  0.22830778    -0.20700
C1861       C  0.61839628  0.31431296  0.25679687    -0.07300
C1862       C  0.62045784  0.31467671  0.31384568     0.13600
C1863       C  0.59980221  0.33362442  0.34806250    -0.24100
H1864       H  0.64593819  0.29920550  0.38379670     0.14900
H1865       H  0.63617521  0.29476201  0.18482761     0.14900
C1866       C  0.68066907  0.25775907  0.22283768    -0.24000
H1867       H  0.58690015  0.31981804  0.37643215     0.05100
H1868       H  0.58304544  0.34707915  0.32423972     0.08300
H1869       H  0.61389121  0.34857611  0.37178719     0.08300
H1870       H  0.67671622  0.23543457  0.23787766     0.08300
H1871       H  0.70523280  0.26236424  0.22721607     0.08300
H1872       H  0.67475806  0.25879665  0.17919603     0.05100
C1873       C  0.99306706  0.32455890  0.60574422    -0.20700
C1874       C  0.98885578  0.32740645  0.66164578    -0.07300
C1875       C  0.00962736  0.31208554  0.69663764     0.13600
C1876       C  0.52929470  0.30793591  0.67320842    -0.20700
C1877       C  0.53902405  0.31501099  0.62117905    -0.07300
C1878       C  0.51680746  0.32284144  0.58180115     0.13600
C1879       C  0.52528633  0.32634851  0.52341194    -0.24100
H1880       H  0.97619402  0.33415283  0.57846685     0.14900
H1881       H  0.54610290  0.29969114  0.70244931     0.14900
C1882       C  0.00419804  0.30913259  0.75645300    -0.24000
H1883       H  0.50498253  0.33251083  0.49824961     0.05100
H1884       H  0.53516090  0.30553699  0.50831660     0.08300
H1885       H  0.54226532  0.34359187  0.51861085     0.08300
H1886       H  0.02295555  0.29628563  0.77687249     0.08300
H1887       H  0.98256019  0.29771372  0.76361383     0.08300
H1888       H  0.49274087  0.33655335  0.76990544     0.05100
C1889       C  0.96049995  0.14516703  0.81398189    -0.20700
C1890       C  0.95477645  0.14970847  0.86872332    -0.07300
C1891       C  0.95068213  0.12521459  0.90284606     0.13600
C1892       C  0.94618040  0.09808747  0.87925239    -0.20700
C1893       C  0.94329234  0.09574758  0.82293653    -0.07300
C1894       C  0.95429305  0.11866122  0.79019805     0.13600
C1895       C  0.95661843  0.11693390  0.72968749    -0.24100
H1896       H  0.96602447  0.16345374  0.78829237     0.14900
H1897       H  0.93922733  0.08011917  0.90455778     0.14900
C1898       C  0.94821874  0.12763982  0.96324594    -0.24000
H1899       H  0.96482157  0.13735694  0.71134890     0.05100
H1900       H  0.93398936  0.11293893  0.71117776     0.08300
H1901       H  0.97361166  0.09966668  0.71921982     0.08300
H1902       H  0.92685704  0.13979298  0.97416425     0.08300
H1903       H  0.96846291  0.13873589  0.97938216     0.08300
H1904       H  0.94744198  0.10595007  0.98315065     0.05100
C1905       C  0.00249918  0.26697907  0.02734516    -0.20700
C1906       C  0.98047025  0.28117937  0.99364401    -0.07300
C1907       C  0.97837001  0.31191749  0.99332874     0.13600
C1908       C  0.99688608  0.32733537  0.02865413    -0.20700
C1909       C  0.01719465  0.31305266  0.06484716    -0.07300
C1910       C  0.02081487  0.28257667  0.06312738     0.13600
C1911       C  0.53694954  0.26794477  0.09991109    -0.24100
H1912       H  0.00453416  0.24350123  0.02732892     0.19300
H1913       H  0.99463727  0.35080924  0.02957683     0.14900
C1914       C  0.95662062  0.32882834  0.95632279    -0.24000
H1915       H  0.53530881  0.24411117  0.09550829     0.05100
H1916       H  0.52978974  0.27362271  0.14147544     0.08300
H1917       H  0.56125469  0.27358192  0.09411213     0.08300
H1918       H  0.93255397  0.32462224  0.96735229     0.08300
H1919       H  0.96080764  0.32259662  0.91382065     0.08300
H1920       H  0.95963525  0.35258441  0.95919723     0.05100
In1921     In  0.91834179  0.73105899  0.90358787     1.36900
C1922       C  0.87295103  0.71751895  0.97157300     0.77200
O1923       O  0.94515077  0.70908294  0.83812772    -0.61300
O1924       O  0.93884371  0.68591607  0.91108635    -0.52200
C1925       C  0.89574400  0.75823256  0.81410406     0.69900
O1926       O  0.88189456  0.73828743  0.83832015    -0.47000
C1927       C  0.95717049  0.76067297  0.96393149     0.74600
O1928       O  0.88417029  0.74230732  0.96774782    -0.58900
O1929       O  0.95943851  0.73357162  0.95882843    -0.49000
O1930       O  0.88371920  0.69961684  0.93826340    -0.55300
C1931       C  0.94858061  0.68532321  0.86345226     0.84700
O1932       O  0.92069062  0.76463496  0.83609514    -0.57200
O1933       O  0.93533474  0.77256077  0.93765582    -0.60500
In1934     In  0.55419279  0.86900865  0.17615036     1.36900
C1935       C  0.56364231  0.90748015  0.09599259     0.77200
O1936       O  0.60148414  0.84943802  0.19264216    -0.61300
O1937       O  0.56535230  0.83778570  0.24459392    -0.52200
C1938       C  0.03135921  0.89506159  0.24754973     0.69900
O1939       O  0.05850296  0.89961189  0.23274149    -0.47000
C1940       C  0.03152429  0.82543814  0.10912260     0.74600
O1941       O  0.53827484  0.89658655  0.10644273    -0.58900
O1942       O  0.55559756  0.83095972  0.11911285    -0.49000
O1943       O  0.58490014  0.89980715  0.12856634    -0.55300
C1944       C  0.59339241  0.83492647  0.23350276     0.84700
O1945       O  0.01818540  0.87598668  0.22078990    -0.57200
O1946       O  0.01893422  0.83662872  0.14981845    -0.60500
In1947     In  0.78334385  0.79522492  0.16836325     1.36900
C1948       C  0.80209052  0.74867362  0.11644618     0.77200
O1949       O  0.73583767  0.78033205  0.16129967    -0.61300
O1950       O  0.75408612  0.81059650  0.10298801    -0.52200
C1951       C  0.76036820  0.83416977  0.23364515     0.69900
O1952       O  0.76217749  0.80737272  0.24787185    -0.47000
C1953       C  0.83676275  0.81560380  0.18787867     0.74600
O1954       O  0.79586644  0.74704225  0.16669713    -0.58900
O1955       O  0.82180293  0.82267782  0.14534611    -0.49000
O1956       O  0.79922850  0.77377737  0.09531418    -0.55300
C1957       C  0.73134151  0.79674012  0.12028723     0.84700
O1958       O  0.76980871  0.84003554  0.18663033    -0.57200
O1959       O  0.82458635  0.79705362  0.21875167    -0.60500
In1960     In  0.68949938  0.91511791  0.92880729     1.36900
C1961       C  0.63474947  0.93446166  0.96038047     0.77200
O1962       O  0.67108548  0.87143675  0.94033142    -0.61300
O1963       O  0.69869963  0.89025923  0.00265138    -0.52200
C1964       C  0.72507741  0.88745781  0.85880555     0.69900
O1965       O  0.69802212  0.89638002  0.84617762    -0.47000
C1966       C  0.71803881  0.96347274  0.91412854     0.74600
O1967       O  0.64005634  0.92633020  0.91231325    -0.58900
O1968       O  0.72260796  0.94840249  0.95681615    -0.49000
O1969       O  0.65792913  0.93420212  0.99113782    -0.55300
C1970       C  0.68296954  0.86915056  0.98696833     0.84700
O1971       O  0.73305868  0.89259680  0.90683330    -0.57200
O1972       O  0.69807052  0.95421239  0.88197611    -0.60500
In1973     In  0.84454552  0.58619147  0.12489355     1.36900
C1974       C  0.83591660  0.64242488  0.09207596     0.77200
O1975       O  0.88164909  0.57747056  0.06747339    -0.61300
O1976       O  0.83862708  0.55755730  0.05467892    -0.52200
C1977       C  0.88340774  0.55806683  0.19436330     0.69900
O1978       O  0.88667990  0.58447250  0.18140602    -0.47000
C1979       C  0.79195787  0.57255427  0.16984656     0.74600
O1980       O  0.84388508  0.63520904  0.13969477    -0.58900
O1981       O  0.79794139  0.56603332  0.12173966    -0.49000
O1982       O  0.83301719  0.62115421  0.06156221    -0.55300
C1983       C  0.86582763  0.56086908  0.03921912     0.84700
O1984       O  0.86123805  0.54669066  0.17105814    -0.57200
O1985       O  0.81214357  0.58704084  0.19290361    -0.60500
In1986     In  0.98386021  0.46775326  0.85066065     1.36900
C1987       C  0.52744191  0.45952071  0.92756659     0.77200
O1988       O  0.94488858  0.46864032  0.90866191    -0.61300
O1989       O  0.94846043  0.50309226  0.85151665    -0.52200
C1990       C  0.02043582  0.49899308  0.79025014     0.69900
O1991       O  0.02696322  0.47288477  0.80248417    -0.47000
C1992       C  0.95732558  0.92282956  0.78480769     0.74600
O1993       O  0.51276956  0.48311815  0.92048728    -0.58900
O1994       O  0.96652593  0.91578780  0.83166401    -0.49000
O1995       O  0.51601821  0.93761879  0.89768395    -0.55300
C1996       C  0.93480318  0.49305790  0.89184665     0.84700
O1997       O  0.99545003  0.50882508  0.80871588    -0.57200
O1998       O  0.46320996  0.95182435  0.77185434    -0.60500
In1999     In  0.59903677  0.54420536  0.14953602     1.36900
C2000       C  0.58503576  0.00125246  0.07892235     0.77200
O2001       O  0.54979185  0.55257002  0.17605996    -0.61300
O2002       O  0.58382379  0.58001044  0.20519580    -0.52200
C2003       C  0.62626601  0.51851764  0.23451030     0.69900
O2004       O  0.59987295  0.51207581  0.21851271    -0.47000
C2005       C  0.62798964  0.58033696  0.08257680     0.74600
O2006       O  0.60773482  0.99979300  0.11044731    -0.58900
O2007       O  0.59931656  0.57800956  0.08238605    -0.49000
O2008       O  0.56825901  0.02376217  0.08441165    -0.55300
C2009       C  0.55607683  0.57329606  0.20640645     0.84700
O2010       O  0.63897801  0.53774210  0.20658214    -0.57200
O2011       O  0.64155619  0.56512429  0.11849277    -0.60500
In2012     In  0.73926952  0.67594834  0.87230987     1.36900
C2013       C  0.77695162  0.68915797  0.95497166     0.77200
O2014       O  0.73296414  0.72347190  0.84791956    -0.61300
O2015       O  0.69955352  0.69403258  0.82399113    -0.52200
C2016       C  0.76322492  0.65240385  0.78232577     0.69900
O2017       O  0.77338263  0.67492424  0.80347719    -0.47000
C2018       C  0.70160366  0.64461275  0.93208358     0.74600
O2019       O  0.78398294  0.67005347  0.92081884    -0.58900
O2020       O  0.69359866  0.66872742  0.91134319    -0.49000
O2021       O  0.75163764  0.70217403  0.94523141    -0.55300
C2022       C  0.70816986  0.71981944  0.82255349     0.84700
O2023       O  0.74196166  0.64104467  0.80859124    -0.57200
O2024       O  0.72820972  0.63564187  0.91970344    -0.60500
C2025       C  0.54928711  0.95456308  0.96911799     0.86100
C2026       C  0.54391817  0.93089402  0.01146607    -0.54100
C2027       C  0.56703109  0.92736357  0.04882338     0.09000
C2028       C  0.59396590  0.94785577  0.03898814     0.20000
C2029       C  0.55509314  0.98187618  0.00218712    -0.54900
C2030       C  0.57823798  0.97842368  0.03934347     0.09100
C2031       C  0.57996693  0.94650053  0.94351937    -0.54400
C2032       C  0.60358639  0.94301349  0.97922818     0.09700
H2033       H  0.52308720  0.91861799  0.01267489     0.14200
H2034       H  0.61295392  0.94488562  0.06875447     0.00000
H2035       H  0.54469250  0.50285573  0.99876403     0.14500
H2036       H  0.58272235  0.94376556  0.90032242     0.14300
C2037       C  0.81204592  0.72353524  0.08147136     0.86100
C2038       C  0.84036169  0.73104248  0.04874219    -0.54100
C2039       C  0.84913749  0.71078203  0.01201626     0.09000
C2040       C  0.82921353  0.68352558  0.01336048     0.20000
C2041       C  0.78760807  0.71680666  0.03878943    -0.54900
C2042       C  0.79646510  0.69614616  0.00246612     0.09100
C2043       C  0.82035174  0.69430352  0.10893202    -0.54400
C2044       C  0.82927600  0.67302265  0.07367306     0.09700
H2045       H  0.85153075  0.75167154  0.05231490     0.14200
H2046       H  0.83658995  0.66660865  0.98430020     0.00000
H2047       H  0.76554788  0.72837023  0.03638492     0.14500
H2048       H  0.81859262  0.69056227  0.15212259     0.14300
In2049     In  0.57146093  0.54940471  0.68715426     1.36900
C2050       C  0.57724802  0.00900067  0.62057702     0.77200
O2051       O  0.03072754  0.57750131  0.67470994    -0.61300
O2052       O  0.57013087  0.58592274  0.62648061    -0.52200
C2053       C  0.03957293  0.51657791  0.75566766     0.69900
O2054       O  0.06510876  0.50772467  0.73765498    -0.47000
C2055       C  0.61808496  0.56925865  0.74492527     0.74600
O2056       O  0.55269914  0.02350204  0.62737547    -0.58900
O2057       O  0.59149440  0.56638101  0.76316795    -0.49000
O2058       O  0.59913098  0.01614641  0.65079338    -0.55300
C2059       C  0.04171977  0.59087748  0.63520044     0.84700
O2060       O  0.03103873  0.54168302  0.74034156    -0.57200
O2061       O  0.62045735  0.56382966  0.69543367    -0.60500
In2062     In  0.94035763  0.67951569  0.40046882     1.36900
C2063       C  0.88967523  0.69756999  0.45288228     0.77200
O2064       O  0.94614846  0.64506936  0.46146608    -0.61300
O2065       O  0.97373204  0.68241812  0.46801959    -0.52200
C2066       C  0.96960563  0.64163063  0.33727714     0.69900
O2067       O  0.94046856  0.64182631  0.34137091    -0.47000
C2068       C  0.94984024  0.72143085  0.33074676     0.74600
O2069       O  0.88922708  0.67559212  0.42241023    -0.58900
O2070       O  0.96468651  0.71911808  0.37471620    -0.49000
O2071       O  0.91486762  0.71030476  0.45284324    -0.55300
C2072       C  0.96714463  0.65764095  0.48649774     0.84700
O2073       O  0.98254466  0.66004681  0.36603562    -0.57200
O2074       O  0.92903755  0.70321089  0.32489910    -0.60500
In2075     In  0.86098280  0.80011542  0.67522421     1.36900
C2076       C  0.84821296  0.76084822  0.60099949     0.77200
O2077       O  0.81045278  0.81000135  0.68904020    -0.61300
O2078       O  0.84331543  0.83275775  0.73432836    -0.52200
C2079       C  0.88389826  0.77277752  0.76422283     0.69900
O2080       O  0.85939213  0.76577786  0.74143578    -0.47000
C2081       C  0.89256329  0.83546604  0.60973090     0.74600
O2082       O  0.87059225  0.75833237  0.63324387    -0.58900
O2083       O  0.86885381  0.84368320  0.63459495    -0.49000
O2084       O  0.83143899  0.78335416  0.60751521    -0.55300
C2085       C  0.81538505  0.82810950  0.72570011     0.84700
O2086       O  0.89728438  0.79327331  0.74079165    -0.57200
O2087       O  0.90147286  0.80994921  0.62173185    -0.60500
In2088     In  0.49018486  0.94046900  0.39036909     1.36900
C2089       C  0.53202284  0.95073841  0.46857925     0.77200
O2090       O  0.48662119  0.98512691  0.34834392    -0.61300
O2091       O  0.94519795  0.95565886  0.34141746    -0.52200
C2092       C  0.01629276  0.90990602  0.29335873     0.69900
O2093       O  0.02861729  0.92962575  0.31985692    -0.47000
C2094       C  0.95433321  0.90273845  0.44364238     0.74600
O2095       O  0.53526595  0.93065159  0.43502365    -0.58900
O2096       O  0.95342534  0.93009894  0.44350338    -0.49000
O2097       O  0.50793480  0.96616136  0.46119641    -0.55300
C2098       C  0.95672354  0.97891228  0.32518727     0.84700
O2099       O  0.99009108  0.90337171  0.31008669    -0.57200
O2100       O  0.97186314  0.89220708  0.40810324    -0.60500
In2101     In  0.62421432  0.85194680  0.62801940     1.36900
C2102       C  0.60372769  0.90386257  0.59433205     0.77200
O2103       O  0.67167336  0.86766712  0.62723419    -0.61300
O2104       O  0.65532052  0.84131518  0.56227169    -0.52200
C2105       C  0.64775938  0.81356168  0.69842575     0.69900
O2106       O  0.64265414  0.83998588  0.71124392    -0.47000
C2107       C  0.57130401  0.82766198  0.63425209     0.74600
O2108       O  0.61145589  0.89862037  0.64327446    -0.58900
O2109       O  0.58781397  0.82458539  0.59253601    -0.49000
O2110       O  0.60610822  0.88235470  0.56337900    -0.55300
C2111       C  0.67751882  0.85396090  0.58439102     0.84700
O2112       O  0.64057643  0.80757213  0.65034237    -0.57200
O2113       O  0.58201051  0.84349062  0.67085046    -0.60500
In2114     In  0.73161013  0.74023052  0.40270143     1.36900
C2115       C  0.78189545  0.72281102  0.45252913     0.77200
O2116       O  0.74945884  0.78380889  0.41536146    -0.61300
O2117       O  0.72130442  0.76334000  0.47626938    -0.52200
C2118       C  0.68652907  0.76752531  0.35133194     0.69900
O2119       O  0.71407452  0.76728775  0.33426759    -0.47000
C2120       C  0.71837149  0.69326695  0.35188544     0.74600
O2121       O  0.78257537  0.73442147  0.40554886    -0.58900
O2122       O  0.70778533  0.69852877  0.39871214    -0.49000
O2123       O  0.75546549  0.71713725  0.47050547    -0.55300
C2124       C  0.73679158  0.78508570  0.46152345     0.84700
O2125       O  0.68244075  0.75428913  0.39601463    -0.57200
O2126       O  0.73693074  0.71164625  0.33361325    -0.60500
In2127     In  0.80104841  0.61602833  0.64337588     1.36900
C2128       C  0.82049774  0.65952784  0.58150710     0.77200
O2129       O  0.84848099  0.59616724  0.64849798    -0.61300
O2130       O  0.81642720  0.58452461  0.70823585    -0.52200
C2131       C  0.77533229  0.64033149  0.73138698     0.69900
O2132       O  0.79685177  0.65155912  0.70568806    -0.47000
C2133       C  0.77148508  0.58234908  0.57566994     0.74600
O2134       O  0.79462393  0.64878843  0.57419149    -0.58900
O2135       O  0.79943172  0.57860898  0.58742594    -0.49000
O2136       O  0.83626425  0.64754899  0.61874559    -0.55300
C2137       C  0.84382846  0.58321908  0.69268098     0.84700
O2138       O  0.76546583  0.61769989  0.71020609    -0.57200
O2139       O  0.75841529  0.60319399  0.59997133    -0.60500
In2140     In  0.66784149  0.47996653  0.36891712     1.36900
C2141       C  0.62941184  0.47072894  0.45025523     0.77200
O2142       O  0.66892410  0.93056197  0.35004302    -0.61300
O2143       O  0.70774992  0.95565265  0.33595220    -0.52200
C2144       C  0.64099176  0.50476924  0.28203947     0.69900
O2145       O  0.62734496  0.48769054  0.31300397    -0.47000
C2146       C  0.70373834  0.51201280  0.42821370     0.74600
O2147       O  0.63656828  0.49546351  0.43368632    -0.58900
O2148       O  0.68412307  0.52266099  0.39546275    -0.49000
O2149       O  0.63819582  0.94900501  0.42761216    -0.55300
C2150       C  0.69612092  0.93099792  0.33329395     0.84700
O2151       O  0.66829423  0.50915609  0.29527375    -0.57200
O2152       O  0.70653849  0.48466428  0.42822449    -0.60500
C2153       C  0.58012874  0.98450177  0.58110307     0.86100
C2154       C  0.60471559  0.98940634  0.53862630    -0.54100
C2155       C  0.60853771  0.96718793  0.50310981     0.09000
C2156       C  0.58738829  0.94165827  0.51421985     0.20000
C2157       C  0.55110752  0.97839630  0.54784914    -0.54900
C2158       C  0.55496446  0.95632960  0.51174645     0.09100
C2159       C  0.58919715  0.95567041  0.60880227    -0.54400
C2160       C  0.59317836  0.93308840  0.57447577     0.09700
H2161       H  0.61764811  0.50895513  0.53120152     0.14200
H2162       H  0.59067425  0.92352183  0.48559421     0.00000
H2163       H  0.53008831  0.99154908  0.55014078     0.14500
H2164       H  0.59269404  0.95348080  0.65211793     0.14300
C2165       C  0.84191627  0.73768196  0.56047537     0.86100
C2166       C  0.86876607  0.73050373  0.52301611    -0.54100
C2167       C  0.86409487  0.70794449  0.48859836     0.09000
C2168       C  0.83182092  0.69474206  0.49524343     0.20000
C2169       C  0.81444558  0.74333130  0.52264319    -0.54900
C2170       C  0.80908832  0.72105996  0.48822972     0.09100
C2171       C  0.83551242  0.70930865  0.58932981    -0.54400
C2172       C  0.82982674  0.68689325  0.55627163     0.09700
H2173       H  0.89008700  0.74200053  0.52475732     0.14200
H2174       H  0.82728273  0.67639856  0.46808389     0.00000
H2175       H  0.80006838  0.76298277  0.52352766     0.14500
H2176       H  0.83449022  0.70731867  0.63306176     0.14300
C2177       C  0.72324808  0.56836645  0.53146864    -0.20700
C2178       C  0.75512943  0.56403481  0.53669691    -0.07300
C2179       C  0.77016116  0.54245573  0.50502104     0.13600
C2180       C  0.75278257  0.52576289  0.46987237    -0.20700
C2181       C  0.72102496  0.53021236  0.46515988    -0.07300
C2182       C  0.70599837  0.55154844  0.49667447     0.13600
C2183       C  0.67153744  0.55523245  0.49693133    -0.24100
H2184       H  0.71152087  0.58455013  0.55579672     0.14900
H2185       H  0.76403777  0.50927325  0.44554474     0.14900
C2186       C  0.80437019  0.53682576  0.50728826    -0.24000
H2187       H  0.66360952  0.57224168  0.52539597     0.05100
H2188       H  0.66149487  0.53449543  0.50968135     0.08300
H2189       H  0.66262358  0.56140620  0.45639010     0.08300
H2190       H  0.81139067  0.52941317  0.54844052     0.08300
H2191       H  0.81635834  0.55689896  0.49615093     0.08300
H2192       H  0.81191590  0.51967704  0.47879922     0.05100
C2193       C  0.73945084  0.80564196  0.55163152    -0.20700
C2194       C  0.73801621  0.81058229  0.49590061    -0.07300
C2195       C  0.72874638  0.83824651  0.47593591     0.13600
C2196       C  0.71353403  0.85746988  0.51071481    -0.20700
C2197       C  0.70853186  0.84921629  0.56431430    -0.07300
C2198       C  0.72535475  0.82530752  0.58656429     0.13600
C2199       C  0.72448014  0.81762845  0.64564853    -0.24100
H2200       H  0.74825625  0.78494076  0.56739161     0.14900
H2201       H  0.70146357  0.87653737  0.49422580     0.14900
C2202       C  0.73123591  0.84603635  0.41736657    -0.24000
H2203       H  0.74822228  0.81432299  0.66125877     0.05100
H2204       H  0.71193550  0.79729021  0.65176589     0.08300
H2205       H  0.71331390  0.83513026  0.66930150     0.08300
H2206       H  0.71649855  0.83181629  0.39336173     0.08300
H2207       H  0.75542379  0.84334622  0.40424202     0.08300
H2208       H  0.72392878  0.86899439  0.40993946     0.05100
C2209       C  0.92430763  0.89913352  0.52895391    -0.20700
C2210       C  0.93727211  0.88498775  0.48409519    -0.07300
C2211       C  0.93438629  0.85450064  0.48047324     0.13600
C2212       C  0.91993600  0.83919158  0.52229953    -0.20700
C2213       C  0.90768988  0.85332553  0.56755642    -0.07300
C2214       C  0.90930932  0.88385228  0.57016842     0.13600
C2215       C  0.89573075  0.90049867  0.61661223    -0.24100
H2216       H  0.92612588  0.92241951  0.53219121     0.14900
H2217       H  0.91803532  0.81587838  0.51947792     0.14900
C2218       C  0.94581616  0.83782129  0.43242877    -0.24000
H2219       H  0.90058768  0.92395879  0.61376867     0.05100
H2220       H  0.90542934  0.89197090  0.65524348     0.08300
H2221       H  0.87047426  0.89843898  0.61684072     0.08300
H2222       H  0.47632142  0.84369279  0.43739309     0.08300
H2223       H  0.93462052  0.84675025  0.39519094     0.08300
H2224       H  0.94060104  0.81444156  0.43552070     0.05100
C2225       C  0.01428490  0.65220938  0.54195587    -0.20700
C2226       C  0.98429614  0.64339007  0.53124864    -0.07300
C2227       C  0.97276368  0.61924347  0.55942662     0.13600
C2228       C  0.99216587  0.60357063  0.59461222    -0.20700
C2229       C  0.02260963  0.61115647  0.60265355    -0.07300
C2230       C  0.03382039  0.63606783  0.57695877     0.13600
C2231       C  0.57245118  0.64015119  0.56952344    -0.24100
H2232       H  0.02305477  0.67084055  0.52068221     0.14900
H2233       H  0.98400744  0.58400920  0.61327220     0.14900
C2234       C  0.94036898  0.60924211  0.55242453    -0.24000
H2235       H  0.57856264  0.65856192  0.54275951     0.05100
H2236       H  0.58418008  0.62035999  0.55372412     0.08300
H2237       H  0.58110019  0.64464705  0.61068122     0.08300
H2238       H  0.93710447  0.60047930  0.51141932     0.08300
H2239       H  0.92383645  0.62758978  0.55938723     0.08300
H2240       H  0.93496303  0.59161825  0.58150979     0.05100
C2241       C  0.69944032  0.57890386  0.79588024    -0.20700
C2242       C  0.69790807  0.56268168  0.84429910    -0.07300
C2243       C  0.66848829  0.55555226  0.86428510     0.13600
C2244       C  0.64238494  0.56285960  0.83351873    -0.20700
C2245       C  0.64464682  0.57402401  0.78101527    -0.07300
C2246       C  0.67325029  0.58391724  0.76310135     0.13600
C2247       C  0.67654208  0.59880404  0.70909834    -0.24100
H2248       H  0.72173318  0.58449477  0.78057268     0.14900
H2249       H  0.62029756  0.55598472  0.84779069     0.14900
C2250       C  0.66388416  0.53651813  0.91360076    -0.24000
H2251       H  0.70012111  0.60661062  0.70320701     0.05100
H2252       H  0.66038119  0.61785486  0.70627340     0.08300
H2253       H  0.67177694  0.58360973  0.67602475     0.08300
H2254       H  0.67224597  0.54696341  0.95051052     0.08300
H2255       H  0.67557255  0.51509347  0.90820480     0.08300
H2256       H  0.63933461  0.53217510  0.92058752     0.05100
C2257       C  0.69720320  0.77265812  0.80472279    -0.20700
C2258       C  0.69078457  0.74368525  0.79320531    -0.07300
C2259       C  0.66810474  0.73826408  0.75360690     0.13600
C2260       C  0.65432312  0.76164128  0.72459438    -0.20700
C2261       C  0.66123888  0.79055725  0.73520938    -0.07300
C2262       C  0.68209134  0.79608322  0.77743303     0.13600
C2263       C  0.68883334  0.82646679  0.79365038    -0.24100
H2264       H  0.71396917  0.77705921  0.83572816     0.14900
H2265       H  0.63783952  0.75723759  0.69310677     0.14900
C2266       C  0.65839107  0.70802026  0.74059545    -0.24000
H2267       H  0.69805323  0.83853646  0.75884592     0.05100
H2268       H  0.70593237  0.82664176  0.82684044     0.08300
H2269       H  0.66757246  0.83764346  0.80799328     0.08300
H2270       H  0.64823083  0.69778660  0.77681817     0.08300
H2271       H  0.67841451  0.69474401  0.72669507     0.08300
H2272       H  0.64076491  0.70807341  0.70808835     0.05100
C2273       C  0.71566767  0.63536034  0.24443165    -0.20700
C2274       C  0.70241573  0.61269670  0.27353440    -0.07300
C2275       C  0.68819365  0.61884701  0.32310421     0.13600
C2276       C  0.69221039  0.64604945  0.34652878    -0.20700
C2277       C  0.70999009  0.66719989  0.32113416    -0.07300
C2278       C  0.72010217  0.66236714  0.26760167     0.13600
C2279       C  0.73705887  0.68457460  0.23502783    -0.24100
H2280       H  0.72597547  0.63085597  0.20560979     0.14900
H2281       H  0.68287879  0.64999508  0.38627213     0.14900
C2282       C  0.67047033  0.59656883  0.35340908    -0.24000
H2283       H  0.74167094  0.67719568  0.19328543     0.05100
H2284       H  0.75960670  0.68852738  0.25400624     0.08300
H2285       H  0.72317838  0.70511079  0.23189016     0.08300
H2286       H  0.64669028  0.60497926  0.36000763     0.08300
H2287       H  0.68165617  0.59229653  0.39307279     0.08300
H2288       H  0.66925578  0.57587720  0.33124534     0.05100
C2289       C  0.51861846  0.61019926  0.32657537    -0.20700
C2290       C  0.98866079  0.62163023  0.30335866    -0.07300
C2291       C  0.98175040  0.61446902  0.24925335     0.13600
C2292       C  0.50361346  0.59532155  0.22141269    -0.20700
C2293       C  0.53313326  0.58810340  0.24158628    -0.07300
C2294       C  0.54037560  0.59509712  0.29542100     0.13600
C2295       C  0.57091053  0.58644813  0.32074394    -0.24100
H2296       H  0.52463308  0.61590368  0.36750019     0.14900
H2297       H  0.49790982  0.58958657  0.18039200     0.14900
C2298       C  0.95309870  0.62532898  0.22032277    -0.24000
H2299       H  0.57193992  0.59224875  0.36404951     0.05100
H2300       H  0.58963403  0.59777185  0.29997398     0.08300
H2301       H  0.57489314  0.56261539  0.31792689     0.08300
H2302       H  0.93809535  0.63950834  0.24500931     0.08300
H2303       H  0.95949806  0.63810894  0.18404838     0.08300
H2304       H  0.93944662  0.11554922  0.19083546     0.05100
C2305       C  0.65406413  0.61840464  0.95348580    -0.20700
C2306       C  0.68213335  0.62914276  0.97066743    -0.07300
C2307       C  0.69116487  0.62562514  0.02514031     0.13600
C2308       C  0.67230560  0.61072050  0.06096613    -0.20700
C2309       C  0.64481198  0.59874099  0.04370654    -0.07300
C2310       C  0.63530326  0.60306788  0.98928121     0.13600
C2311       C  0.60599741  0.59088916  0.96822057    -0.24100
H2312       H  0.64716914  0.62147230  0.91166452     0.14900
H2313       H  0.67914801  0.60837496  0.10284223     0.14900
C2314       C  0.72052207  0.63801546  0.04573015    -0.24000
H2315       H  0.60282643  0.59535119  0.92437198     0.05100
H2316       H  0.58610184  0.60090636  0.98947372     0.08300
H2317       H  0.60631855  0.56701523  0.97464578     0.08300
H2318       H  0.72018958  0.66182721  0.03836417     0.08300
H2319       H  0.74043045  0.62787078  0.02468266     0.08300
H2320       H  0.72370591  0.63402360  0.08972600     0.05100
C2321       C  0.89708790  0.56342054  0.70163871    -0.20700
C2322       C  0.86940710  0.57175604  0.72671573    -0.07300
C2323       C  0.86966901  0.57740457  0.78272137     0.13600
C2324       C  0.89781096  0.58209826  0.80786331    -0.20700
C2325       C  0.92509868  0.58081482  0.77837493    -0.07300
C2326       C  0.92517449  0.56670902  0.72849968     0.13600
C2327       C  0.95488794  0.55740323  0.70288618    -0.24100
H2328       H  0.89696080  0.55707911  0.65970142     0.14900
H2329       H  0.89779142  0.59169772  0.84742147     0.14900
C2330       C  0.84069927  0.58265415  0.81453117    -0.24000
H2331       H  0.95125187  0.54891827  0.66171315     0.05100
H2332       H  0.96599259  0.53991595  0.72793352     0.08300
H2333       H  0.97060360  0.57573665  0.70082399     0.08300
H2334       H  0.82564949  0.56383365  0.81051014     0.08300
H2335       H  0.82845079  0.60275088  0.80001534     0.08300
H2336       H  0.84565325  0.58531681  0.85817712     0.05100
C2337       C  0.96986564  0.90690124  0.69459398    -0.20700
C2338       C  0.95351983  0.90158077  0.74181445    -0.07300
C2339       C  0.94000576  0.87449866  0.74961274     0.13600
C2340       C  0.94641110  0.85224288  0.71272191    -0.20700
C2341       C  0.96794462  0.85598473  0.67144268    -0.07300
C2342       C  0.97823153  0.88438419  0.66011730     0.13600
C2343       C  0.00058657  0.89105704  0.61557031    -0.24100
H2344       H  0.97948942  0.92806129  0.68815761     0.14900
H2345       H  0.93742649  0.83097589  0.71974487     0.14900
C2346       C  0.91956992  0.86890389  0.79704631    -0.24000
H2347       H  0.00681135  0.91423068  0.61485671     0.05100
H2348       H  0.99025088  0.88661477  0.57569260     0.08300
H2349       H  0.02219304  0.87802656  0.62138834     0.08300
H2350       H  0.90002895  0.88491746  0.79652204     0.08300
H2351       H  0.43856062  0.87525514  0.85199686     0.08300
H2352       H  0.41234919  0.85116217  0.82178618     0.05100
C2353       C  0.90681958  0.00532516  0.30609619    -0.20700
C2354       C  0.93833371  0.00226906  0.29539815    -0.07300
C2355       C  0.95416239  0.52148160  0.26051106     0.13600
C2356       C  0.93521680  0.54031972  0.22828412    -0.20700
C2357       C  0.90316439  0.54115800  0.23377865    -0.07300
C2358       C  0.88997314  0.52359850  0.27422150     0.13600
C2359       C  0.85579910  0.52403623  0.28322859    -0.24100
H2360       H  0.89702728  0.99168866  0.33704355     0.14900
H2361       H  0.44420858  0.55510323  0.19175032     0.14900
C2362       C  0.48723320  0.51970887  0.23951354    -0.24000
H2363       H  0.84897206  0.01403840  0.32815748     0.05100
H2364       H  0.84388064  0.51544810  0.24747844     0.08300
H2365       H  0.84736333  0.54658179  0.29071811     0.08300
H2366       H  0.49210938  0.99752319  0.24080004     0.08300
H2367       H  0.50253838  0.52626003  0.27280736     0.08300
H2368       H  0.49251616  0.53302240  0.20332980     0.05100
C2369       C  0.76520437  0.56375175  0.25454286    -0.20700
C2370       C  0.76356040  0.56527286  0.19821601    -0.07300
C2371       C  0.73445322  0.56685401  0.17309192     0.13600
C2372       C  0.70896525  0.57531661  0.20438875    -0.20700
C2373       C  0.71320708  0.58307537  0.25858206    -0.07300
C2374       C  0.74000098  0.57237401  0.28548916     0.13600
C2375       C  0.74419333  0.57480091  0.34560270    -0.24100
H2376       H  0.78726128  0.55980404  0.27410543     0.14900
H2377       H  0.68752955  0.58137308  0.18451115     0.14900
C2378       C  0.73075770  0.56237634  0.11350635    -0.24000
H2379       H  0.76657471  0.56512845  0.35937294     0.05100
H2380       H  0.72598739  0.56291202  0.36641507     0.08300
H2381       H  0.74339828  0.59784768  0.35783500     0.08300
H2382       H  0.74106183  0.54094688  0.10260771     0.08300
H2383       H  0.74220485  0.57974831  0.09062457     0.08300
H2384       H  0.70626273  0.56244789  0.10141874     0.05100
C2385       C  0.87171106  0.51602023  0.98733128    -0.20700
C2386       C  0.87886394  0.54523025  0.99347335    -0.07300
C2387       C  0.90057386  0.55795872  0.95949766     0.13600
C2388       C  0.91639844  0.54045659  0.92286488    -0.20700
C2389       C  0.91180900  0.51053467  0.92090365    -0.07300
C2390       C  0.88840299  0.49824847  0.95193646     0.13600
C2391       C  0.47046597  0.53327038  0.97376213    -0.24100
H2392       H  0.85453183  0.50659715  0.01301753     0.14900
H2393       H  0.93413645  0.54979673  0.89853591     0.14900
C2394       C  0.90751924  0.58975635  0.96233181    -0.24000
H2395       H  0.47776015  0.54978078  0.00298914     0.05100
H2396       H  0.48064310  0.53860738  0.93406777     0.08300
H2397       H  0.47963826  0.51183458  0.98823576     0.08300
H2398       H  0.91834686  0.59473924  0.00153816     0.08300
H2399       H  0.88607970  0.60310416  0.95676406     0.08300
H2400       H  0.92377576  0.59618437  0.93065476     0.05100
C2401       C  0.76735768  0.85129476  0.84535220    -0.20700
C2402       C  0.74636075  0.87156868  0.82191160    -0.07300
C2403       C  0.74718984  0.87647134  0.76535426     0.13600
C2404       C  0.76939388  0.86143710  0.73425923    -0.20700
C2405       C  0.79078509  0.84185442  0.75837285    -0.07300
C2406       C  0.78935379  0.83634457  0.81439318     0.13600
C2407       C  0.81075481  0.81426385  0.84152702    -0.24100
H2408       H  0.76652542  0.84702731  0.88841969     0.14900
H2409       H  0.77057958  0.86551454  0.69117733     0.14900
C2410       C  0.72549107  0.89803464  0.73776412    -0.24000
H2411       H  0.80590791  0.81195267  0.88528133     0.05100
H2412       H  0.83484905  0.82089210  0.83723379     0.08300
H2413       H  0.80812506  0.79275282  0.82273816     0.08300
H2414       H  0.72808889  0.91981167  0.75530822     0.08300
H2415       H  0.70149150  0.89129412  0.74279736     0.08300
H2416       H  0.73000858  0.89970903  0.69380362     0.05100
C2417       C  0.73592275  0.52433050  0.82503320    -0.20700
C2418       C  0.72572224  0.54530875  0.86183675    -0.07300
C2419       C  0.73247674  0.54020251  0.91697324     0.13600
C2420       C  0.73434161  0.01199186  0.94214512    -0.20700
C2421       C  0.73301030  0.99091930  0.90201563    -0.07300
C2422       C  0.74196767  0.49584208  0.84275688     0.13600
C2423       C  0.74102960  0.97845527  0.80295614    -0.24100
H2424       H  0.73407370  0.52864228  0.78202037     0.14900
H2425       H  0.73525773  0.00548747  0.98430113     0.14900
C2426       C  0.73289764  0.56485106  0.95584512    -0.24000
H2427       H  0.77125937  0.47910177  0.78047943     0.05100
H2428       H  0.72036469  0.97754382  0.77675973     0.08300
H2429       H  0.74682364  0.95637017  0.81905742     0.08300
H2430       H  0.71095263  0.57740665  0.95448460     0.08300
H2431       H  0.75156057  0.57953264  0.94465581     0.08300
H2432       H  0.73708965  0.55692810  0.99774500     0.05100
C2433       C  0.74303531  0.90837876  0.29261814    -0.20700
C2434       C  0.71312120  0.90503735  0.31189244    -0.07300
C2435       C  0.70043225  0.87712547  0.31011400     0.13600
C2436       C  0.71777006  0.85368694  0.28903557    -0.20700
C2437       C  0.74684669  0.85751483  0.26722655    -0.07300
C2438       C  0.75992675  0.88517463  0.27009110     0.13600
C2439       C  0.79173973  0.89113166  0.25021188    -0.24100
H2440       H  0.75332096  0.92943879  0.29427332     0.14900
H2441       H  0.70795354  0.83242398  0.28744933     0.14900
C2442       C  0.66880587  0.87149079  0.33061492    -0.24000
H2443       H  0.79035194  0.90748976  0.21695509     0.05100
H2444       H  0.80417670  0.87157682  0.23540907     0.08300
H2445       H  0.80555275  0.89983345  0.28372394     0.08300
H2446       H  0.65141339  0.88431988  0.30678683     0.08300
H2447       H  0.66715412  0.87684243  0.37404666     0.08300
H2448       H  0.66355596  0.84842063  0.32666090     0.05100
C2449       C  0.91033441  0.82786076  0.26054511    -0.20700
C2450       C  0.93005724  0.82117715  0.21755293    -0.07300
C2451       C  0.91927621  0.82685003  0.16459573     0.13600
C2452       C  0.88759116  0.82913831  0.15553583    -0.20700
C2453       C  0.86737336  0.82646352  0.19891925    -0.07300
C2454       C  0.87862377  0.82919556  0.25209685     0.13600
C2455       C  0.85767720  0.83177518  0.30011913    -0.24100
H2456       H  0.91884002  0.82598932  0.30163748     0.14900
H2457       H  0.87883995  0.82926332  0.11451626     0.14900
C2458       C  0.94088133  0.82662764  0.11772794    -0.24000
H2459       H  0.87077272  0.83512831  0.33797354     0.05100
H2460       H  0.84455342  0.81181588  0.30589808     0.08300
H2461       H  0.84163140  0.85066657  0.29439576     0.08300
H2462       H  0.95806139  0.84357249  0.12325747     0.08300
H2463       H  0.92867175  0.83104340  0.07890596     0.08300
H2464       H  0.95270937  0.80519060  0.11508701     0.05100
C2465       C  0.69848418  0.79487669  0.04223798    -0.20700
C2466       C  0.70133484  0.80279399  0.09633343    -0.07300
C2467       C  0.68616063  0.82829421  0.11425984     0.13600
C2468       C  0.67537743  0.84858584  0.07621569    -0.20700
C2469       C  0.67973642  0.84359681  0.02137241    -0.07300
C2470       C  0.68853444  0.81562201  0.00364913     0.13600
C2471       C  0.69142635  0.80888320  0.94460541    -0.24100
H2472       H  0.70961533  0.77487544  0.02899796     0.14900
H2473       H  0.66747085  0.86985894  0.08947141     0.14900
C2474       C  0.68722620  0.83751532  0.17204022    -0.24000
H2475       H  0.69900742  0.78597366  0.93821277     0.05100
H2476       H  0.70855423  0.82307074  0.92576494     0.08300
H2477       H  0.66889371  0.81253057  0.92421781     0.08300
H2478       H  0.70229707  0.85633123  0.17575059     0.08300
H2479       H  0.69601568  0.81967411  0.19870002     0.08300
H2480       H  0.66393733  0.84421692  0.18557106     0.05100
C2481       C  0.97137264  0.76905383  0.30603558    -0.20700
C2482       C  0.95545259  0.74447257  0.29029609    -0.07300
C2483       C  0.94321651  0.74364169  0.23735863     0.13600
C2484       C  0.94125833  0.76932482  0.20681853    -0.20700
C2485       C  0.95084285  0.79564055  0.22831370    -0.07300
C2486       C  0.96963704  0.79461224  0.27476109     0.13600
C2487       C  0.98545777  0.82103888  0.29409418    -0.24100
H2488       H  0.98302000  0.76923885  0.34476016     0.14900
H2489       H  0.92798566  0.76947367  0.16973656     0.14900
C2490       C  0.93072733  0.71645679  0.21347506    -0.24000
H2491       H  0.97708371  0.82692183  0.33466283     0.05100
H2492       H  0.98119441  0.83984950  0.26645149     0.08300
H2493       H  0.51185476  0.81998974  0.29934634     0.08300
H2494       H  0.90926334  0.71049092  0.23395777     0.08300
H2495       H  0.94810074  0.69841188  0.21722864     0.08300
H2496       H  0.92515587  0.71946216  0.16993001     0.05100
C2497       C  0.63833975  0.79820674  0.34966970    -0.20700
C2498       C  0.66088609  0.78238623  0.32121976    -0.07300
C2499       C  0.65872130  0.78128452  0.26440076     0.13600
C2500       C  0.63606417  0.79819887  0.23714851    -0.20700
C2501       C  0.61501053  0.81580904  0.26517406    -0.07300
C2502       C  0.61544886  0.81506487  0.32232961     0.13600
C2503       C  0.59332734  0.83353355  0.35456498    -0.24100
H2504       H  0.63956331  0.79857080  0.39333623     0.14900
H2505       H  0.63476394  0.79768378  0.19348851     0.14900
C2506       C  0.67938635  0.76130320  0.23248357    -0.24000
H2507       H  0.56951730  0.82677339  0.34710425     0.05100
H2508       H  0.59536754  0.85671300  0.34282046     0.08300
H2509       H  0.59793561  0.83143792  0.39858059     0.08300
H2510       H  0.67667239  0.73859808  0.24663757     0.08300
H2511       H  0.70352726  0.76724254  0.23786876     0.08300
H2512       H  0.67394755  0.76243162  0.18867056     0.05100
C2513       C  0.99138217  0.82842771  0.59559520    -0.20700
C2514       C  0.98561126  0.83023306  0.65119331    -0.07300
C2515       C  0.00546700  0.81446089  0.68725755     0.13600
C2516       C  0.53216035  0.80942525  0.69418490    -0.20700
C2517       C  0.54087423  0.81533097  0.64105413    -0.07300
C2518       C  0.51794021  0.81840021  0.60089175     0.13600
C2519       C  0.52582149  0.82183298  0.54219715    -0.24100
H2520       H  0.97539476  0.83875684  0.56756525     0.14900
H2521       H  0.54975002  0.80454003  0.72434947     0.14900
C2522       C  0.99920418  0.81177885  0.74691711    -0.24000
H2523       H  0.50489743  0.82393413  0.51661200     0.05100
H2524       H  0.53943084  0.80253456  0.52881636     0.08300
H2525       H  0.53923036  0.84163805  0.53588710     0.08300
H2526       H  0.01764156  0.79903105  0.76841983     0.08300
H2527       H  0.97750580  0.80037193  0.75342334     0.08300
H2528       H  0.49126372  0.83559591  0.78734104     0.05100
C2529       C  0.95109180  0.65674355  0.78126470    -0.20700
C2530       C  0.95795473  0.65809865  0.83637297    -0.07300
C2531       C  0.96560519  0.63208313  0.86494687     0.13600
C2532       C  0.96056486  0.60539351  0.84010888    -0.20700
C2533       C  0.94647948  0.60450085  0.78917162    -0.07300
C2534       C  0.94394212  0.63043883  0.75768583     0.13600
C2535       C  0.92971064  0.63153452  0.70195073    -0.24100
H2536       H  0.94655521  0.67669507  0.75857308     0.14900
H2537       H  0.96401933  0.58543057  0.86302963     0.14900
C2538       C  0.97764808  0.63222657  0.92203241    -0.24000
H2539       H  0.92918969  0.65379049  0.68421622     0.05100
H2540       H  0.90567968  0.62447869  0.70364662     0.08300
H2541       H  0.94313946  0.61755265  0.67427115     0.08300
H2542       H  0.95984763  0.64059864  0.94999864     0.08300
H2543       H  0.99807884  0.64591060  0.92415460     0.08300
H2544       H  0.98458196  0.61002367  0.93627097     0.05100
C2545       C  0.98728593  0.76425925  0.04864829    -0.20700
C2546       C  0.97783605  0.77693623  0.99913328    -0.07300
C2547       C  0.98782895  0.80490664  0.98492959     0.13600
C2548       C  0.00661734  0.81956648  0.02093917    -0.20700
C2549       C  0.01490652  0.80734628  0.07116683    -0.07300
C2550       C  0.00542405  0.77935326  0.08519026     0.13600
C2551       C  0.52871590  0.76612497  0.12281698    -0.24100
H2552       H  0.97961680  0.74285056  0.05955281     0.19300
H2553       H  0.01404728  0.84115908  0.01067142     0.14900
C2554       C  0.97917045  0.81929364  0.93175914    -0.24000
H2555       H  0.52596530  0.74230198  0.12091624     0.05100
H2556       H  0.52006031  0.77364712  0.16245227     0.08300
H2557       H  0.55352003  0.77048899  0.11983963     0.08300
H2558       H  0.95403412  0.82360496  0.92971896     0.08300
H2559       H  0.98634831  0.80508085  0.89799541     0.08300
H2560       H  0.99039748  0.84040884  0.92633087     0.05100
loop_ 
_geom_bond_atom_site_label_1 
_geom_bond_atom_site_label_2 
_geom_bond_distance 
_geom_bond_site_symmetry_2 
_ccdc_geom_bond_type 
In1           O3   2.231       .  S
In1           O4   2.251       .  S
In1          O12   2.281       .  S
In1           O6   2.280       .  S
In1           O8   2.238       .  S
In1           O9   2.268       .  S
In1          O10   2.295       .  S
In1          O13   2.254       .  S
C2            O8   1.261       .  A
C2           O10   1.258       .  A
C2          C119   1.486   1_556  S
O3           C11   1.262       .  A
O4           C11   1.258       .  A
C5           O12   1.259       .  A
C5            O6   1.261       .  A
C5          C159   1.483       .  S
C7            O9   1.261       .  A
C7           O13   1.260       .  A
C7          C626   1.490       .  S
C11         C610   1.485       .  S
In14         O16   2.258       .  S
In14         O17   2.250       .  S
In14         O21   2.221       .  S
In14         O22   2.268       .  S
In14         O23   2.300       .  S
In14       O1305   2.261       .  S
In14       O1299   2.267       .  S
In14       O1306   2.239       .  S
C15          O21   1.258       .  A
C15          O23   1.265       .  A
C15         C107   1.485       .  S
O16          C24   1.264       .  A
O17          C24   1.260       .  A
C18          O25   1.261       .  A
C18          O19   1.262       .  A
C18         C172   1.482       .  S
O19       In1294   2.274       .  S
C20          O26   1.261       .  A
C20        O1302   1.260       .  A
C20         C629   1.484       .  S
O22        C1300   1.261       .  A
C24         C581   1.483       .  S
O25       In1294   2.267       .  S
O26       In1294   2.251       .  S
In27         O29   2.196       .  S
In27         O30   2.161       .  S
In27         O38   2.183       .  S
In27         O32   2.239       .  S
In27         O34   2.268       .  S
In27         O35   2.217       .  S
In27         O36   2.171       .  S
In27         O39   2.183       .  S
C28          O34   1.278       .  A
C28          O36   1.267       .  A
C28         C117   1.507       .  S
O29          C37   1.268       .  A
O30          C37   1.273       .  A
C31          O38   1.268       .  A
C31          O32   1.279       .  A
C31         C517   1.476       .  S
C33          O35   1.271       .  A
C33          O39   1.270       .  A
C33         C533   1.466       .  S
C37         C546   1.449       .  S
In40         O42   2.207       .  S
In40         O43   2.163       .  S
In40         O51   2.201       .  S
In40         O45   2.264       .  S
In40         O47   2.226       .  S
In40         O48   2.248       .  S
In40         O49   2.238       .  S
In40         O52   2.168       .  S
C41          O47   1.276       .  A
C41          O49   1.264       .  A
C41         C112   1.481       .  S
O42          C50   1.267       .  A
O43          C50   1.273       .  A
C44          O51   1.267       .  A
C44          O45   1.275       .  A
C44         C482   1.491       .  S
C46          O48   1.270       .  A
C46          O52   1.267       .  A
C46         C501   1.467       .  S
C50         C549   1.452   1_556  S
In53         O55   2.186       .  S
In53         O56   2.217       .  S
In53         O64   2.254       .  S
In53         O58   2.313       .  S
In53         O60   2.297       .  S
In53         O61   2.256       .  S
In53         O62   2.285       .  S
In53         O65   2.191       .  S
C54          O60   1.267       .  A
C54          O62   1.256       .  A
C54         C124   1.500       .  S
O55          C63   1.265       .  A
O56          C63   1.263       .  A
C57          O64   1.257       .  A
C57          O58   1.270       .  A
C57         C437   1.502       .  S
C59          O61   1.262       .  A
C59          O65   1.263       .  A
C59         C450   1.468       .  S
C63         C466   1.467       .  S
In66         O68   2.215       .  S
In66         O69   2.221   1_565  S
In66         O77   2.208   1_565  S
In66         O71   2.240       .  S
In66       O1353   2.225       .  S
In66        O714   2.255       .  S
In66       O1995   2.259       .  S
In66       O1998   2.228       .  S
C67          O73   1.258       .  A
C67         O715   1.265       .  A
C67         C745   1.500       .  S
O68          C76   1.259       .  A
O69          C76   1.256   1_545  A
C70          O77   1.258   1_565  A
C70          O71   1.262       .  A
C70         C133   1.451   1_565  S
C72          O74   1.262       .  A
C72        O1358   1.258       .  A
C72         C418   1.476       .  S
O73       In1346   2.217   1_455  S
O74        In706   2.265       .  S
O75       In1986   2.233   1_455  S
O75         C707   1.261       .  A
C76         C469   1.449   1_565  S
O78       In1986   2.221       .  S
O78        C1352   1.258       .  A
In79         O81   2.280       .  S
In79         O82   2.260       .  S
In79         O90   2.249       .  S
In79         O84   2.254       .  S
In79         O87   2.262       .  S
In79         O91   2.258       .  S
In79        O726   2.280   1_545  S
In79        O728   2.245       .  S
C80          O86   1.259       .  A
C80          O88   1.260       .  A
C80         C110   1.481       .  S
O81          C89   1.260       .  A
O82          C89   1.259       .  A
C83          O90   1.262       .  A
C83          O84   1.262       .  A
C83         C224   1.469       .  S
C85          O87   1.260       .  A
C85          O91   1.261       .  A
C85         C389   1.491       .  S
O86        In719   2.279       .  S
O88        In719   2.244       .  S
C89         C373   1.487       .  S
In92         O94   2.273       .  S
In92         O95   2.247       .  S
In92        O103   2.273       .  S
In92         O97   2.272       .  S
In92         O99   2.289       .  S
In92        O100   2.267       .  S
In92        O101   2.264       .  S
In92        O104   2.258       .  S
C93          O99   1.262       .  A
C93         O101   1.263       .  A
C93         C122   1.496   1_556  S
O94         C102   1.265       .  A
O95         C102   1.259       .  A
C96         O103   1.261       .  A
C96          O97   1.260       .  A
C96         C211   1.480       .  S
C98         O100   1.258       .  A
C98         O104   1.260       .  A
C98         C386   1.481       .  S
C102        C338   1.497       .  S
C105        C707   1.494       .  S
C105        C106   1.525   1_556  S
C105        C111   1.522       .  S
C105        C109   1.533   1_556  S
C106        H113   1.087       .  S
C106        C107   1.368       .  D
C107        C108   1.553       .  S
C108        C112   1.559   1_554  S
C108        C110   1.551       .  S
C108        H114   1.111       .  S
C109        H755   1.086       .  S
C109        C110   1.367       .  D
C111        H116   1.087       .  S
C111        C112   1.357       .  D
H115        C749   1.086       .  S
C117        C118   1.526       .  S
C117        C123   1.534       .  S
C117        C121   1.538       .  S
C118        H125   1.088       .  S
C118        C119   1.358       .  D
C119        C120   1.553       .  S
C120        C124   1.569       .  S
C120        C122   1.552       .  S
C120        H126   1.110   1_554  S
C121        H127   1.087       .  S
C121        C122   1.367       .  D
C123        H128   1.086       .  S
C123        C124   1.373       .  D
In129       O132   2.239       .  S
In129       O137   2.235       .  S
In129       O141   2.263       .  S
In129      O1411   2.206       .  S
In129      O1420   2.219       .  S
In129      O1414   2.231       .  S
In129       O776   2.251       .  S
In129       O778   2.240       .  S
C130        O136   1.259       .  A
C130        O138   1.262       .  A
C130        C233   1.497       .  S
O131      In1409   2.212       .  S
O131        C139   1.258       .  A
O132       C1419   1.261       .  A
C133        O140   1.260       .  A
C133        O134   1.262       .  A
O134      In1409   2.237       .  S
C135        O137   1.258       .  A
C135        O141   1.260       .  A
C135        C325   1.479       .  S
O136       In769   2.247       .  S
O138       In769   2.234       .  S
C139       O1412   1.261       .  A
C139        C309   1.464       .  S
O140      In1409   2.214       .  S
In142       O144   2.193       .  S
In142       O145   2.226       .  S
In142       O153   2.201       .  S
In142       O147   2.294       .  S
In142       O149   2.316       .  S
In142       O150   2.242       .  S
In142       O151   2.215       .  S
In142       O154   2.200       .  S
C143        O149   1.271       .  A
C143        O151   1.262       .  A
C143        C247   1.499       .  S
O144        C152   1.264       .  A
O145        C152   1.267       .  A
C146        O153   1.260       .  A
C146        O147   1.274       .  A
C146        C370   1.495       .  S
C148        O150   1.265       .  A
C148        O154   1.264       .  A
C148        C562   1.476       .  S
C152        C306   1.470       .  S
In155       O157   2.264       .  S
In155       O158   2.230       .  S
In155       O166   2.280       .  S
In155       O160   2.265       .  S
In155       O162   2.241       .  S
In155       O163   2.281       .  S
In155       O164   2.283       .  S
In155       O167   2.269       .  S
C156        O162   1.259       .  A
C156        O164   1.262       .  A
C156        C245   1.511       .  S
O157        C165   1.265       .  A
O158        C165   1.262       .  A
C159        O166   1.265       .  A
C159        O160   1.261       .  A
C161        O163   1.257       .  A
C161        O167   1.259       .  A
C161        C293   1.491       .  S
C165        C485   1.482       .  S
In168       O170   2.281       .  S
In168       O175   2.274   1_655  S
In168       O177   2.253   1_655  S
In168      O1451   2.268       .  S
In168      O1459   2.264       .  S
In168      O1453   2.258   1_655  S
In168      O1456   2.260       .  S
In168      O1460   2.252       .  S
C169        O175   1.259       .  A
C169        O177   1.261       .  A
C169        C238   1.483       .  S
O170       C1458   1.260       .  A
O171      In1448   2.270       .  S
O171        C178   1.260       .  A
C172        O179   1.263       .  A
C172        O173   1.262       .  A
O173      In1448   2.268       .  S
C174        O176   1.261       .  A
C174        O180   1.262       .  A
C174        C290   1.503       .  S
O176      In1448   2.272       .  S
C178       O1450   1.261       .  A
C178        C434   1.504       .  S
O179      In1448   2.272       .  S
O180      In1448   2.265       .  S
In181       O183   2.222       .  S
In181       O184   2.182       .  S
In181       O192   2.208       .  S
In181       O186   2.276       .  S
In181       O188   2.247       .  S
In181       O189   2.251       .  S
In181       O190   2.243       .  S
In181       O193   2.171       .  S
C182        O188   1.274       .  A
C182        O190   1.263       .  A
C182        C240   1.486       .  S
O183        C191   1.265       .  A
O184        C191   1.270       .  A
C185        O192   1.265       .  A
C185        O186   1.277       .  A
C185        C341   1.495       .  S
C187        O189   1.270       .  A
C187        O193   1.267       .  A
C187        C597   1.469       .  S
C191        C277   1.456       .  S
In194       O196   2.199       .  S
In194       O197   2.160       .  S
In194       O205   2.228       .  S
In194       O199   2.234       .  S
In194       O201   2.243       .  S
In194       O202   2.223       .  S
In194       O203   2.225       .  S
In194       O206   2.179       .  S
C195        O201   1.277       .  A
C195        O203   1.273       .  A
C195        C250   1.483       .  S
O196        C204   1.276       .  A
O197        C204   1.278       .  A
C198        O205   1.273       .  A
C198        O199   1.277       .  A
C198        C578   1.493       .  S
C200        O202   1.275       .  A
C200        O206   1.272       .  A
C200        C357   1.483       .  S
C204        C274   1.460       .  S
In207       O209   2.252       .  S
In207       O210   2.246       .  S
In207       O218   2.275       .  S
In207       O212   2.277       .  S
In207       O214   2.278       .  S
In207       O215   2.246       .  S
In207       O216   2.253       .  S
In207       O219   2.251       .  S
C208        O214   1.261       .  A
C208        O216   1.261       .  A
C208        C252   1.478       .  S
O209        C217   1.262       .  A
O210        C217   1.257       .  A
C211        O218   1.260       .  A
C211        O212   1.260       .  A
C213        O215   1.260       .  A
C213        O219   1.263       .  A
C213        C258   1.492       .  S
C217        C402   1.478       .  S
In220       O231   2.260   1_565  S
In220       O225   2.264       .  S
In220       O227   2.222       .  S
In220       O228   2.238   1_565  S
In220       O232   2.269       .  S
In220       O862   2.236       .  S
In220       O863   2.251       .  S
In220       O869   2.266       .  S
C221        O227   1.258       .  A
C221        O869   1.260       .  A
C221        C875   1.468       .  S
O222       In860   2.229       .  S
O222        C230   1.260       .  A
O223       In860   2.245       .  S
O223        C230   1.264       .  A
C224        O231   1.257       .  A
C224        O225   1.258   1_545  A
C226        O228   1.258       .  A
C226        O232   1.263   1_545  A
C226        C261   1.484       .  S
O229       In860   2.277       .  S
O229        C861   1.260       .  A
C230        C514   1.487       .  S
C233        C234   1.524       .  S
C233        C239   1.529       .  S
C233        C237   1.537       .  S
C234        H881   1.085       .  S
C234        C235   1.363       .  D
C235        C861   1.473       .  S
C235        C236   1.543       .  S
C236        C240   1.557       .  S
C236        C238   1.548       .  S
C236        H242   1.111       .  S
C237        H243   1.086       .  S
C237        C238   1.369       .  D
C239        H244   1.087       .  S
C239        C240   1.362       .  D
H241        C874   1.086   1_545  S
C245        C246   1.527       .  S
C245        C251   1.522       .  S
C245        C249   1.534       .  S
C246        H253   1.087       .  S
C246        C247   1.371       .  D
C247        C248   1.563       .  S
C248        C252   1.559       .  S
C248        C250   1.552       .  S
C248        H254   1.110       .  S
C249        H255   1.086       .  S
C249        C250   1.371       .  D
C251        H256   1.088       .  S
C251        C252   1.358       .  D
C257        C258   1.406       .  A
C257        C262   1.404       .  A
C257        H264   1.084       .  S
C258        C259   1.421       .  A
C259        C266   1.507       .  S
C259        C260   1.407       .  A
C260        C261   1.401       .  A
C260        H265   1.084       .  S
C261        C262   1.416       .  A
C262        C263   1.509       .  S
C263        H267   1.111       .  S
C263        H268   1.109       .  S
C263        H269   1.107       .  S
C266        H270   1.110       .  S
C266        H271   1.110       .  S
C266        H272   1.111       .  S
C273        C274   1.398       .  A
C273        C278   1.394       .  A
C273        H280   1.085       .  S
C274        C275   1.407       .  A
C275        C282   1.497       .  S
C275        C276   1.400       .  A
C276        C277   1.399       .  A
C276        H281   1.085       .  S
C277        C278   1.410       .  A
C278        C279   1.505       .  S
C279        H283   1.109       .  S
C279        H284   1.110       .  S
C279        H285   1.107       .  S
C282        H286   1.110       .  S
C282        H287   1.110       .  S
C282        H288   1.107       .  S
C289        C290   1.411       .  A
C289        C294   1.412       .  A
C289        H296   1.084       .  S
C290        C291   1.420       .  A
C291        C298   1.506       .  S
C291        C292   1.408       .  A
C292        C293   1.403       .  A
C292        H297   1.084       .  S
C293        C294   1.415       .  A
C294        C295   1.506       .  S
C295        H299   1.111       .  S
C295        H300   1.108       .  S
C295        H301   1.110       .  S
C298        H303   1.111       .  S
C298        H304   1.111       .  S
C298       H1582   1.108       .  S
H302       C1578   1.109       .  S
C305        C306   1.406       .  A
C305        C310   1.402       .  A
C305        H312   1.084       .  S
C306        C307   1.414       .  A
C307        C314   1.511       .  S
C307        C308   1.395       .  A
C308        C309   1.400       .  A
C308        H313   1.083       .  S
C309        C310   1.409       .  A
C310       C1591   1.507       .  S
C311       C1590   1.507       .  S
C311        H315   1.111       .  S
C311        H316   1.109       .  S
C311        H317   1.111       .  S
C314        H318   1.109       .  S
C314        H319   1.111       .  S
C314        H320   1.110       .  S
C321        C322   1.407       .  A
C321        C326   1.408       .  A
C321        H328   1.084       .  S
C322        C498   1.488       .  S
C322        C323   1.425       .  A
C323        C330   1.513       .  S
C323        C324   1.397       .  A
C324        C325   1.398       .  A
C324        H329   1.084       .  S
C325        C326   1.413       .  A
C326        C327   1.506       .  S
C327        H331   1.111       .  S
C327        H332   1.110       .  S
C327        H333   1.109       .  S
C330        H334   1.106       .  S
C330        H335   1.106       .  S
C330        H336   1.111       .  S
C337        C338   1.407       .  A
C337        C342   1.411       .  A
C337        H344   1.082       .  S
C338        C339   1.421       .  A
C339        C346   1.509       .  S
C339        C340   1.406       .  A
C340        C341   1.406       .  A
C340        H345   1.084       .  S
C341        C342   1.414       .  A
C342        C343   1.499       .  S
C343        H347   1.105       .  S
C343        H348   1.108       .  S
C343        H349   1.110       .  S
C346        H350   1.110       .  S
C346        H351   1.111       .  S
C346        H352   1.111       .  S
C353        C354   1.405       .  A
C353        C358   1.395       .  A
C353        H360   1.084       .  S
C354        C453   1.485       .  S
C354        C355   1.409       .  A
C355        C362   1.501       .  S
C355        C356   1.406       .  A
C356        C357   1.409       .  A
C356        H361   1.084       .  S
C357        C358   1.418       .  A
C358        C359   1.511       .  S
C359        H363   1.111       .  S
C359        H364   1.109       .  S
C359        H365   1.109       .  S
C362        H366   1.110       .  S
C362        H367   1.108       .  S
C362        H368   1.110       .  S
C369        C374   1.406       .  A
C369       C1650   1.407   1_455  A
C369        H376   1.085       .  S
C370        C371   1.416       .  A
C370       C1649   1.406       .  A
C371        C378   1.504       .  S
C371       C1652   1.416       .  A
C372        C373   1.404       .  A
C372       C1651   1.414   1_455  A
C372        H377   1.084   1_455  S
C373        C374   1.411       .  A
C374        C375   1.508       .  S
C375        H379   1.111       .  S
C375        H380   1.110       .  S
C375        H381   1.111       .  S
C378        H382   1.110       .  S
C378        H383   1.110       .  S
C378       H1024   1.110       .  S
H384       C1018   1.110       .  S
C385        C386   1.403       .  A
C385        C390   1.410       .  A
C385        H392   1.084       .  S
C386        C387   1.413   1_556  A
C387        C394   1.508       .  S
C387        C388   1.405       .  A
C388        C389   1.405       .  A
C388        H393   1.083       .  S
C389        C390   1.419   1_554  A
C390        C391   1.507       .  S
C391        H395   1.111       .  S
C391        H396   1.110       .  S
C391        H397   1.110       .  S
C394        H398   1.111       .  S
C394        H399   1.110       .  S
C394        H400   1.111       .  S
C401        C402   1.405       .  A
C401        C406   1.405       .  A
C401        H408   1.084       .  S
C402        C403   1.417       .  A
C403        C410   1.509       .  S
C403        C404   1.400       .  A
C404        C405   1.404       .  A
C404        H409   1.084       .  S
C405        C613   1.490       .  S
C405        C406   1.411       .  A
C406        C407   1.503       .  S
C407        H411   1.109       .  S
C407        H412   1.110       .  S
C407        H413   1.109       .  S
C410        H414   1.110       .  S
C410        H415   1.110       .  S
C410        H416   1.110       .  S
C417        C418   1.398       .  A
C417        C422   1.396       .  A
C417        H424   1.085       .  S
C418        C419   1.412       .  A
C419        C426   1.505       .  S
C419        C420   1.408       .  A
C420        C421   1.407       .  A
C420        H425   1.082       .  S
C421        C594   1.494       .  S
C421        C422   1.425       .  A
C422        C423   1.513       .  S
C423        H427   1.111       .  S
C423        H428   1.108       .  S
C423        H429   1.109       .  S
C426        H430   1.110       .  S
C426       H1711   1.109       .  S
C426       H1712   1.111       .  S
H431       C1706   1.109       .  S
H432       C1706   1.111       .  S
C433        C434   1.406       .  A
C433       C1078   1.409       .  A
C433        H440   1.084       .  S
C434       C1075   1.421       .  A
C435       C1722   1.506       .  S
C435        C436   1.417       .  A
C435       C1074   1.421       .  A
C436        C437   1.406       .  A
C436       H1721   1.083       .  S
C437        C438   1.419       .  A
C438        C439   1.508       .  S
C438       C1073   1.412       .  A
C439        H444   1.109       .  S
C439        H445   1.110       .  S
C439       H1083   1.111       .  S
H441       C1716   1.084       .  S
C442       C1715   1.504       .  S
C442        H447   1.110       .  S
C442        H448   1.109       .  S
C442       H1086   1.110   1_545  S
H443       C1079   1.111       .  S
H446       C1082   1.111       .  S
C449        C450   1.397       .  A
C449        C454   1.393       .  A
C449        H456   1.085       .  S
C450        C451   1.409       .  A
C451        C458   1.502       .  S
C451        C452   1.408       .  A
C452        C453   1.409       .  A
C452        H457   1.083       .  S
C453        C454   1.415       .  A
C454        C455   1.504       .  S
C455        H459   1.111       .  S
C455        H460   1.105       .  S
C455        H461   1.108       .  S
C458        H462   1.110       .  S
C458        H463   1.109       .  S
C458        H464   1.109       .  S
C465        C466   1.400       .  A
C465        C470   1.386   1_554  A
C465        H472   1.084       .  S
C466        C467   1.419   1_554  A
C467        C474   1.507       .  S
C467        C468   1.404       .  A
C468        C469   1.397       .  A
C468        H473   1.084       .  S
C469        C470   1.407       .  A
C470       C1751   1.508       .  S
C471       C1750   1.510   1_564  S
C471        H475   1.111       .  S
C471        H476   1.109   1_554  S
C471        H477   1.110       .  S
C474        H478   1.110       .  S
C474        H479   1.110       .  S
C474        H480   1.111       .  S
C481        C482   1.406       .  A
C481        C486   1.401       .  A
C481        H488   1.084       .  S
C482        C483   1.418       .  A
C483        C490   1.507       .  S
C483        C484   1.412       .  A
C484        C485   1.405       .  A
C484        H489   1.084       .  S
C485        C486   1.412       .  A
C486        C487   1.510       .  S
C487        H491   1.111       .  S
C487        H492   1.109       .  S
C487        H493   1.111       .  S
C490        H494   1.109       .  S
C490        H495   1.109       .  S
C490        H496   1.111       .  S
C497        C498   1.403       .  A
C497        C502   1.395   1_545  A
C497        H504   1.084       .  S
C498        C499   1.411       .  A
C499        C506   1.501       .  S
C499       C1140   1.408       .  A
C500        C501   1.403       .  A
C500       C1139   1.408       .  A
C500        H505   1.083       .  S
C501       C1142   1.410       .  A
C502       C1143   1.506       .  S
C502       C1141   1.411       .  A
C503       C1142   1.507       .  S
C503        H508   1.110       .  S
C503        H509   1.110       .  S
C503       H1147   1.110       .  S
C506        H510   1.104       .  S
C506        H511   1.110       .  S
C506        H512   1.109       .  S
H507       C1143   1.110       .  S
C513        C514   1.404       .  A
C513        C518   1.401       .  A
C513        H520   1.084       .  S
C514        C515   1.419       .  A
C515        C522   1.506       .  S
C515        C516   1.405       .  A
C516        C517   1.398       .  A
C516        H521   1.084       .  S
C517        C518   1.415       .  A
C518        C519   1.509       .  S
C519        H523   1.110       .  S
C519        H524   1.106       .  S
C519        H525   1.111       .  S
C522        H526   1.110       .  S
C522        H527   1.110       .  S
C522        H528   1.105       .  S
C529        C530   1.407       .  A
C529        C534   1.398       .  A
C529        H536   1.083       .  S
C530        C565   1.488       .  S
C530        C531   1.413       .  A
C531        C538   1.494       .  S
C531        C532   1.398       .  A
C532        C533   1.399       .  A
C532        H537   1.085       .  S
C533        C534   1.411       .  A
C534        C535   1.509       .  S
C535        H539   1.111       .  S
C535        H540   1.108       .  S
C535        H541   1.109       .  S
C538        H542   1.107       .  S
C538        H543   1.109       .  S
C538        H544   1.111       .  S
C545        C546   1.399       .  A
C545        C550   1.399   1_554  A
C545        H552   1.085       .  S
C546        C547   1.409       .  A
C547        C554   1.503       .  S
C547        C548   1.390       .  A
C548        C549   1.396       .  A
C548        H553   1.086       .  S
C549        C550   1.409   1_554  A
C550        C551   1.505       .  S
C551        H555   1.110       .  S
C551        H556   1.110       .  S
C551        H557   1.110       .  S
C554        H558   1.110       .  S
C554        H559   1.107       .  S
C554        H560   1.108       .  S
C561        C562   1.405       .  A
C561        C566   1.403       .  A
C561        H568   1.084       .  S
C562        C563   1.414       .  A
C563        C570   1.509       .  S
C563        C564   1.396       .  A
C564        C565   1.406       .  A
C564        H569   1.083       .  S
C565        C566   1.411       .  A
C566        C567   1.502       .  S
C567        H571   1.106       .  S
C567        H572   1.109       .  S
C567       H1853   1.110       .  S
C570        H574   1.108       .  S
C570        H575   1.110       .  S
C570        H576   1.111       .  S
H573       C1847   1.110   1_455  S
C577        C578   1.405       .  A
C577        C582   1.408       .  A
C577        H584   1.085       .  S
C578        C579   1.414       .  A
C579        C586   1.503       .  S
C579        C580   1.408       .  A
C580        C581   1.402       .  A
C580        H585   1.084       .  S
C581        C582   1.417       .  A
C582        C583   1.509       .  S
C583        H587   1.110       .  S
C583        H588   1.107       .  S
C583        H589   1.111       .  S
C586        H590   1.109       .  S
C586        H591   1.105       .  S
C586        H592   1.111       .  S
C593        C594   1.407       .  A
C593       C1878   1.406       .  A
C593        H600   1.077       .  S
C594        C595   1.420       .  A
C595        C602   1.509       .  S
C595       C1876   1.398       .  A
C596        C597   1.400       .  A
C596       C1875   1.398       .  A
C596        H601   1.085       .  S
C597        C598   1.407       .  A
C598        C599   1.504       .  S
C598       C1873   1.406   1_455  A
C599        H603   1.108       .  S
C599        H604   1.110       .  S
C599        H605   1.110       .  S
C602        H606   1.111       .  S
C602        H607   1.110       .  S
C602       H1888   1.109       .  S
H608       C1882   1.110       .  S
C609        C610   1.398       .  A
C609        C614   1.396       .  A
C609        H616   1.084       .  S
C610        C611   1.418       .  A
C611        C618   1.506       .  S
C611        C612   1.409       .  A
C612        C613   1.406       .  A
C612        H617   1.085       .  S
C613        C614   1.422       .  A
C614        C615   1.506       .  S
C615        H619   1.111       .  S
C615        H620   1.109       .  S
C615        H621   1.100       .  S
C618        H622   1.109       .  S
C618        H623   1.110       .  S
C618        H624   1.111       .  S
C625        C626   1.407   1_554  A
C625        C630   1.409       .  A
C625        H632   1.084       .  S
C626        C627   1.418       .  A
C627        C634   1.508       .  S
C627        C628   1.407   1_556  A
C628        C629   1.404       .  A
C628        H633   1.084       .  S
C629        C630   1.412       .  A
C630       C1911   1.506       .  S
C631       C1910   1.506       .  S
C631        H635   1.111       .  S
C631        H636   1.111       .  S
C631        H637   1.110       .  S
C634        H638   1.109       .  S
C634        H639   1.111       .  S
C634        H640   1.111       .  S
In641       O643   2.239       .  S
In641       O644   2.254       .  S
In641       O652   2.281       .  S
In641       O646   2.284       .  S
In641       O648   2.245       .  S
In641       O649   2.271       .  S
In641       O650   2.287       .  S
In641       O653   2.256       .  S
C642        O648   1.260       .  A
C642        O650   1.258       .  A
C642        C759   1.484   1_556  S
O643        C651   1.261       .  A
O644        C651   1.257       .  A
C645        O652   1.260       .  A
C645        O646   1.263       .  A
C645        C799   1.487       .  S
C647        O649   1.261       .  A
C647        O653   1.259       .  A
C647       C1266   1.496   1_556  S
C651       C1250   1.486       .  S
In654       O656   2.269       .  S
In654       O657   2.247       .  S
In654      O1945   2.249       .  S
In654      O1939   2.279       .  S
In654       O661   2.224       .  S
In654       O662   2.247       .  S
In654       O663   2.301       .  S
In654      O1946   2.247       .  S
C655        O661   1.259       .  A
C655        O663   1.266       .  A
C655        C747   1.488       .  S
O656        C664   1.262       .  A
O657        C664   1.256       .  A
C658        O665   1.260       .  A
C658        O659   1.263       .  A
C658        C812   1.479       .  S
O659      In1934   2.276       .  S
C660       O1942   1.261       .  A
C660        O666   1.261       .  A
C660       C1269   1.480       .  S
O662       C1940   1.258       .  A
C664       C1221   1.486       .  S
O665      In1934   2.254       .  S
O666      In1934   2.242       .  S
In667       O669   2.200       .  S
In667       O670   2.154       .  S
In667       O678   2.186       .  S
In667       O672   2.248       .  S
In667       O674   2.267       .  S
In667       O675   2.201       .  S
In667       O676   2.189       .  S
In667       O679   2.187       .  S
C668        O674   1.278       .  A
C668        O676   1.267       .  A
C668        C757   1.512       .  S
O669        C677   1.269       .  A
O670        C677   1.272       .  A
C671        O678   1.268       .  A
C671        O672   1.280       .  A
C671       C1157   1.478       .  S
C673        O675   1.271       .  A
C673        O679   1.271       .  A
C673       C1173   1.466       .  S
C677       C1186   1.449       .  S
In680       O682   2.204       .  S
In680       O683   2.175       .  S
In680       O691   2.210       .  S
In680       O685   2.266       .  S
In680       O687   2.245       .  S
In680       O688   2.259       .  S
In680       O689   2.244       .  S
In680       O692   2.182       .  S
C681        O687   1.275       .  A
C681        O689   1.263       .  A
C681        C752   1.486       .  S
O682        C690   1.266       .  A
O683        C690   1.273       .  A
C684        O691   1.265       .  A
C684        O685   1.274       .  A
C684       C1122   1.489       .  S
C686        O688   1.268       .  A
C686        O692   1.266       .  A
C686       C1141   1.472       .  S
C690       C1189   1.454   1_556  S
In693       O695   2.194       .  S
In693       O696   2.218       .  S
In693       O704   2.242       .  S
In693       O698   2.306       .  S
In693       O700   2.290       .  S
In693       O701   2.259       .  S
In693       O702   2.277       .  S
In693       O705   2.198       .  S
C694        O700   1.266       .  A
C694        O702   1.257       .  A
C694        C764   1.496       .  S
O695        C703   1.264       .  A
O696        C703   1.262       .  A
C697        O704   1.257       .  A
C697        O698   1.269       .  A
C697       C1077   1.495       .  S
C699        O701   1.262       .  A
C699        O705   1.263       .  A
C699       C1090   1.471       .  S
C703       C1106   1.471       .  S
In706       O708   2.229       .  S
In706       O709   2.207       .  S
In706       O717   2.214       .  S
In706       O711   2.244       .  S
In706      O1993   2.228       .  S
In706      O1355   2.259       .  S
In706      O1358   2.226       .  S
C707        O713   1.258       .  A
O708        C716   1.261       .  A
O709        C716   1.256       .  A
C710        O717   1.257       .  A
C710        O711   1.262       .  A
C710        C773   1.453       .  S
C712        O714   1.260       .  A
C712       O1998   1.257       .  A
C712       C1058   1.476       .  S
O713      In1986   2.238   1_455  S
O715      In1346   2.256   1_455  S
C716       C1109   1.450       .  S
O718      In1346   2.222       .  S
O718       C1992   1.258       .  A
In719       O721   2.286       .  S
In719       O722   2.251       .  S
In719       O730   2.247       .  S
In719       O724   2.252       .  S
In719       O727   2.274       .  S
In719       O731   2.257       .  S
C720        O726   1.259       .  A
C720        O728   1.260   1_565  A
C720        C750   1.482       .  S
O721        C729   1.261       .  A
O722        C729   1.259       .  A
C723        O730   1.262       .  A
C723        O724   1.263       .  A
C723        C864   1.468       .  S
C725        O727   1.259       .  A
C725        O731   1.259       .  A
C725       C1029   1.492       .  S
C729       C1013   1.494       .  S
In732       O734   2.269       .  S
In732       O735   2.232       .  S
In732       O743   2.275       .  S
In732       O737   2.276       .  S
In732       O739   2.276       .  S
In732       O740   2.261       .  S
In732       O741   2.262       .  S
In732       O744   2.245       .  S
C733        O739   1.262       .  A
C733        O741   1.262       .  A
C733        C762   1.490   1_556  S
O734        C742   1.265       .  A
O735        C742   1.260       .  A
C736        O743   1.261       .  A
C736        O737   1.261       .  A
C736        C851   1.483       .  S
C738        O740   1.259       .  A
C738        O744   1.260       .  A
C738       C1026   1.481       .  S
C742        C978   1.486       .  S
C745        C746   1.528   1_556  S
C745        C751   1.525       .  S
C745        C749   1.536       .  S
C746        H753   1.087       .  S
C746        C747   1.369       .  D
C747        C748   1.551       .  S
C748        C752   1.563   1_554  S
C748        C750   1.546       .  S
C748        H754   1.110       .  S
C749        C750   1.365   1_556  D
C751        H756   1.087       .  S
C751        C752   1.362       .  D
C757        C758   1.531       .  S
C757        C763   1.535       .  S
C757        C761   1.541       .  S
C758        H765   1.087       .  S
C758        C759   1.362       .  D
C759        C760   1.549       .  S
C760        C764   1.562       .  S
C760        C762   1.544       .  S
C760        H766   1.111   1_554  S
C761        H767   1.087       .  S
C761        C762   1.369       .  D
C763        H768   1.086       .  S
C763        C764   1.371       .  D
In769      O2051   2.200       .  S
In769       O772   2.247       .  S
In769      O2060   2.223       .  S
In769      O2054   2.253       .  S
In769       O777   2.234       .  S
In769       O781   2.251       .  S
C770        O776   1.258       .  A
C770        O778   1.263       .  A
C770        C873   1.500   1_545  S
O771      In2049   2.222       .  S
O771        C779   1.258       .  A
O772       C2059   1.261       .  A
C773        O780   1.261       .  A
C773        O774   1.259       .  A
O774      In2049   2.240       .  S
C775        O777   1.259       .  A
C775        O781   1.258       .  A
C775        C965   1.480       .  S
C779       O2052   1.260       .  A
C779        C949   1.477       .  S
O780      In2049   2.222       .  S
In782       O784   2.191       .  S
In782       O785   2.236       .  S
In782       O793   2.197       .  S
In782       O787   2.291       .  S
In782       O789   2.314       .  S
In782       O790   2.238       .  S
In782       O791   2.214       .  S
In782       O794   2.210       .  S
C783        O789   1.270       .  A
C783        O791   1.262       .  A
C783        C887   1.498       .  S
O784        C792   1.262       .  A
O785        C792   1.267       .  A
C786        O793   1.259       .  A
C786        O787   1.274       .  A
C786       C1010   1.490       .  S
C788        O790   1.265       .  A
C788        O794   1.265       .  A
C788       C1202   1.480       .  S
C792        C946   1.469       .  S
In795       O797   2.259       .  S
In795       O798   2.233       .  S
In795       O806   2.282       .  S
In795       O800   2.275       .  S
In795       O802   2.235       .  S
In795       O803   2.272       .  S
In795       O804   2.273       .  S
In795       O807   2.271       .  S
C796        O802   1.260       .  A
C796        O804   1.262       .  A
C796        C885   1.506       .  S
O797        C805   1.265       .  A
O798        C805   1.263       .  A
C799        O806   1.264       .  A
C799        O800   1.261       .  A
C801        O803   1.257       .  A
C801        O807   1.259       .  A
C801        C933   1.493       .  S
C805       C1125   1.479       .  S
In808       O810   2.295       .  S
In808      O2091   2.277       .  S
In808      O2099   2.265       .  S
In808      O2093   2.276   1_655  S
In808       O815   2.273   1_655  S
In808      O2096   2.264       .  S
In808       O817   2.273   1_655  S
In808      O2100   2.273       .  S
C809        O815   1.259       .  A
C809        O817   1.263       .  A
C809        C878   1.489       .  S
O810       C2098   1.262       .  A
O811      In2088   2.276       .  S
O811        C818   1.260       .  A
C812        O819   1.262       .  A
C812        O813   1.262       .  A
O813      In2088   2.272       .  S
C814        O816   1.262       .  A
C814        O820   1.261       .  A
C814        C930   1.500       .  S
O816      In2088   2.266       .  S
C818       O2090   1.262       .  A
C818       C1074   1.506   1_565  S
O819      In2088   2.264       .  S
O820      In2088   2.262       .  S
In821       O823   2.220       .  S
In821       O824   2.177       .  S
In821       O832   2.209       .  S
In821       O826   2.254       .  S
In821       O828   2.240       .  S
In821       O829   2.245       .  S
In821       O830   2.242       .  S
In821       O833   2.164       .  S
C822        O828   1.274       .  A
C822        O830   1.265       .  A
C822        C880   1.486       .  S
O823        C831   1.266       .  A
O824        C831   1.272       .  A
C825        O832   1.268       .  A
C825        O826   1.276       .  A
C825        C981   1.496       .  S
C827        O829   1.272       .  A
C827        O833   1.268       .  A
C827       C1237   1.468       .  S
C831        C917   1.458       .  S
In834       O836   2.194       .  S
In834       O837   2.176       .  S
In834       O845   2.226       .  S
In834       O839   2.219       .  S
In834       O841   2.231       .  S
In834       O842   2.208       .  S
In834       O843   2.219       .  S
In834       O846   2.178       .  S
C835        O841   1.276       .  A
C835        O843   1.273       .  A
C835        C890   1.477       .  S
O836        C844   1.274       .  A
O837        C844   1.278       .  A
C838        O845   1.274       .  A
C838        O839   1.277       .  A
C838       C1218   1.487       .  S
C840        O842   1.276       .  A
C840        O846   1.272       .  A
C840        C997   1.482       .  S
C844        C914   1.464       .  S
In847       O849   2.243       .  S
In847       O850   2.244       .  S
In847       O858   2.279       .  S
In847       O852   2.278       .  S
In847       O854   2.285       .  S
In847       O855   2.241       .  S
In847       O856   2.246       .  S
In847       O859   2.235       .  S
C848        O854   1.260       .  A
C848        O856   1.261       .  A
C848        C892   1.478       .  S
O849        C857   1.262       .  A
O850        C857   1.258       .  A
C851        O858   1.261       .  A
C851        O852   1.260       .  A
C853        O855   1.260       .  A
C853        O859   1.264       .  A
C853        C898   1.487       .  S
C857       C1042   1.477       .  S
In860       O871   2.259       .  S
In860       O865   2.263       .  S
In860       O867   2.223       .  S
In860       O868   2.225       .  S
In860       O872   2.263       .  S
C861        O867   1.257       .  A
O862        C870   1.259       .  A
O863        C870   1.264       .  A
C864        O871   1.257       .  A
C864        O865   1.258       .  A
C866        O868   1.258       .  A
C866        O872   1.263       .  A
C866        C901   1.479       .  S
C870       C1154   1.490       .  S
C873        C874   1.525       .  S
C873        C879   1.529       .  S
C873        C877   1.542       .  S
C874        C875   1.362       .  D
C875        C876   1.540       .  S
C876        C880   1.554       .  S
C876        C878   1.549       .  S
C876        H882   1.111       .  S
C877        H883   1.086       .  S
C877        C878   1.372       .  D
C879        H884   1.087       .  S
C879        C880   1.361       .  D
C885        C886   1.526       .  S
C885        C891   1.518       .  S
C885        C889   1.532       .  S
C886        H893   1.087       .  S
C886        C887   1.372       .  D
C887        C888   1.563       .  S
C888        C892   1.560       .  S
C888        C890   1.551       .  S
C888        H894   1.110       .  S
C889        H895   1.086       .  S
C889        C890   1.370       .  D
C891        H896   1.088       .  S
C891        C892   1.357       .  D
C897        C898   1.403       .  A
C897        C902   1.399       .  A
C897        H904   1.084       .  S
C898        C899   1.421       .  A
C899        C906   1.508       .  S
C899        C900   1.407       .  A
C900        C901   1.402       .  A
C900        H905   1.084       .  S
C901        C902   1.415       .  A
C902        C903   1.508       .  S
C903        H907   1.111       .  S
C903        H908   1.108       .  S
C903        H909   1.107       .  S
C906        H910   1.110       .  S
C906        H911   1.110       .  S
C906        H912   1.111       .  S
C913        C914   1.399       .  A
C913        C918   1.396       .  A
C913        H920   1.085       .  S
C914        C915   1.410       .  A
C915        C922   1.500       .  S
C915        C916   1.400       .  A
C916        C917   1.397       .  A
C916        H921   1.085       .  S
C917        C918   1.411       .  A
C918        C919   1.504       .  S
C919        H923   1.109       .  S
C919        H924   1.109       .  S
C919        H925   1.109       .  S
C922        H926   1.110       .  S
C922        H927   1.110       .  S
C922        H928   1.108       .  S
C929        C930   1.409       .  A
C929        C934   1.410       .  A
C929        H936   1.083       .  S
C930        C931   1.420       .  A
C931        C938   1.506       .  S
C931        C932   1.408       .  A
C932        C933   1.404       .  A
C932        H937   1.084       .  S
C933        C934   1.415       .  A
C934        C935   1.507       .  S
C935        H939   1.111       .  S
C935        H940   1.109       .  S
C935        H941   1.110       .  S
C938       H2222   1.109       .  S
C938        H943   1.110       .  S
C938        H944   1.111       .  S
H942       C2218   1.107       .  S
C945        C946   1.403       .  A
C945        C950   1.403       .  A
C945        H952   1.084       .  S
C946        C947   1.412       .  A
C947        C954   1.511       .  S
C947        C948   1.397       .  A
C948        C949   1.404       .  A
C948        H953   1.082       .  S
C949        C950   1.415       .  A
C950       C2231   1.507       .  S
C951       C2230   1.507       .  S
C951        H955   1.111       .  S
C951        H956   1.109       .  S
C951        H957   1.110       .  S
C954        H958   1.108       .  S
C954        H959   1.111       .  S
C954        H960   1.109       .  S
C961        C962   1.409       .  A
C961        C966   1.406       .  A
C961        H968   1.084       .  S
C962       C1138   1.493       .  S
C962        C963   1.428       .  A
C963        C970   1.514       .  S
C963        C964   1.398       .  A
C964        C965   1.398       .  A
C964        H969   1.084       .  S
C965        C966   1.414       .  A
C966        C967   1.508       .  S
C967        H971   1.111       .  S
C967        H972   1.110       .  S
C967        H973   1.109       .  S
C970        H974   1.104       .  S
C970        H975   1.108       .  S
C970        H976   1.111       .  S
C977        C978   1.404       .  A
C977        C982   1.411       .  A
C977        H984   1.083       .  S
C978        C979   1.415       .  A
C979        C986   1.510       .  S
C979        C980   1.403       .  A
C980        C981   1.408       .  A
C980        H985   1.084       .  S
C981        C982   1.418       .  A
C982        C983   1.504       .  S
C983        H987   1.108       .  S
C983        H988   1.109       .  S
C983        H989   1.110       .  S
C986        H990   1.109       .  S
C986        H991   1.111       .  S
C986        H992   1.111       .  S
C993        C994   1.405       .  A
C993        C998   1.397       .  A
C993       H1000   1.085       .  S
C994       C1093   1.481       .  S
C994        C995   1.407       .  A
C995       C1002   1.502       .  S
C995        C996   1.403       .  A
C996        C997   1.409       .  A
C996       H1001   1.084       .  S
C997        C998   1.419       .  A
C998        C999   1.511       .  S
C999       H1003   1.111       .  S
C999       H1004   1.109       .  S
C999       H1005   1.108       .  S
C1002      H1006   1.110       .  S
C1002      H1007   1.108       .  S
C1002      H1008   1.110       .  S
C1009      C2290   1.406   1_455  A
C1009      C1014   1.404       .  A
C1009      H1016   1.085       .  S
C1010      C2289   1.406       .  A
C1010      C1011   1.415       .  A
C1011      C1018   1.505       .  S
C1011      C2292   1.414       .  A
C1012      C2291   1.414   1_455  A
C1012      C1013   1.408       .  A
C1012      H1017   1.084   1_455  S
C1013      C1014   1.416       .  A
C1014      C1015   1.510       .  S
C1015      H1019   1.111       .  S
C1015      H1020   1.110       .  S
C1015      H1021   1.111       .  S
C1018      H1022   1.110       .  S
C1018      H1023   1.111       .  S
C1025      C1026   1.403       .  A
C1025      C1030   1.410       .  A
C1025      H1032   1.084       .  S
C1026      C1027   1.413   1_556  A
C1027      C1034   1.510       .  S
C1027      C1028   1.403       .  A
C1028      C1029   1.405       .  A
C1028      H1033   1.081       .  S
C1029      C1030   1.419   1_554  A
C1030      C1031   1.506       .  S
C1031      H1035   1.111       .  S
C1031      H1036   1.110   1_556  S
C1031      H1037   1.110       .  S
C1034      H1038   1.111       .  S
C1034      H1039   1.109       .  S
C1034      H1040   1.111       .  S
C1041      C1042   1.406       .  A
C1041      C1046   1.404       .  A
C1041      H1048   1.084       .  S
C1042      C1043   1.416       .  A
C1043      C1050   1.509       .  S
C1043      C1044   1.400       .  A
C1044      C1045   1.404       .  A
C1044      H1049   1.084       .  S
C1045      C1253   1.490       .  S
C1045      C1046   1.411       .  A
C1046      C1047   1.503       .  S
C1047      H1051   1.109       .  S
C1047      H1052   1.110       .  S
C1047      H1053   1.109       .  S
C1050      H1054   1.110       .  S
C1050      H1055   1.110       .  S
C1050      H1056   1.111       .  S
C1057      C1058   1.398       .  A
C1057      C1062   1.396       .  A
C1057      H1064   1.084       .  S
C1058      C1059   1.413       .  A
C1059      C1066   1.506       .  S
C1059      C1060   1.407       .  A
C1060      C1061   1.406       .  A
C1060      H1065   1.080       .  S
C1061      C1234   1.495       .  S
C1061      C1062   1.427       .  A
C1062      C1063   1.512       .  S
C1063      H1067   1.111       .  S
C1063      H1068   1.107       .  S
C1063      H1069   1.108       .  S
C1066      H1070   1.110       .  S
C1066      H2351   1.109       .  S
C1066      H2352   1.111       .  S
H1071      C2346   1.109       .  S
H1072      C2346   1.111       .  S
C1073      C1074   1.406       .  A
C1073      H1080   1.084   1_545  S
C1075      C2362   1.506       .  S
C1075      C1076   1.417       .  A
C1076      C1077   1.406       .  A
C1076      H2361   1.084       .  S
C1077      C1078   1.416       .  A
C1078      C1079   1.509       .  S
C1079      H1084   1.109       .  S
C1079      H1085   1.110       .  S
H1081      C2356   1.083       .  S
C1082      C2355   1.507       .  S
C1082      H1087   1.110   1_655  S
C1082      H1088   1.110       .  S
C1089      C1090   1.398       .  A
C1089      C1094   1.394       .  A
C1089      H1096   1.085       .  S
C1090      C1091   1.409       .  A
C1091      C1098   1.504       .  S
C1091      C1092   1.407       .  A
C1092      C1093   1.408       .  A
C1092      H1097   1.082       .  S
C1093      C1094   1.415       .  A
C1094      C1095   1.506       .  S
C1095      H1099   1.111       .  S
C1095      H1100   1.106       .  S
C1095      H1101   1.109       .  S
C1098      H1102   1.110       .  S
C1098      H1103   1.108       .  S
C1098      H1104   1.109       .  S
C1105      C1106   1.403       .  A
C1105      C1110   1.389   1_554  A
C1105      H1112   1.084       .  S
C1106      C1107   1.420   1_554  A
C1107      C1114   1.508       .  S
C1107      C1108   1.403       .  A
C1108      C1109   1.396       .  A
C1108      H1113   1.084       .  S
C1109      C1110   1.407       .  A
C1110      C2391   1.509       .  S
C1111      C2390   1.507       .  S
C1111      H1115   1.111       .  S
C1111      H1116   1.109       .  S
C1111      H1117   1.110       .  S
C1114      H1118   1.110       .  S
C1114      H1119   1.110       .  S
C1114      H1120   1.111       .  S
C1121      C1122   1.406       .  A
C1121      C1126   1.402       .  A
C1121      H1128   1.084       .  S
C1122      C1123   1.418       .  A
C1123      C1130   1.506       .  S
C1123      C1124   1.412       .  A
C1124      C1125   1.404       .  A
C1124      H1129   1.084       .  S
C1125      C1126   1.411       .  A
C1126      C1127   1.509       .  S
C1127      H1131   1.111       .  S
C1127      H1132   1.110       .  S
C1127      H1133   1.111       .  S
C1130      H1134   1.109       .  S
C1130      H1135   1.109       .  S
C1130      H1136   1.111       .  S
C1137      C1138   1.405       .  A
C1137      C1142   1.393       .  A
C1137      H1144   1.084       .  S
C1138      C1139   1.411       .  A
C1139      C1146   1.500       .  S
C1140      C1141   1.404   1_545  A
C1140      H1145   1.083       .  S
C1143      H1148   1.111       .  S
C1143      H1149   1.111       .  S
C1146      H1150   1.101       .  S
C1146      H1151   1.110       .  S
C1146      H1152   1.110       .  S
C1153      C1154   1.404       .  A
C1153      C1158   1.402       .  A
C1153      H1160   1.085       .  S
C1154      C1155   1.419       .  A
C1155      C1162   1.504       .  S
C1155      C1156   1.407       .  A
C1156      C1157   1.399       .  A
C1156      H1161   1.084       .  S
C1157      C1158   1.414       .  A
C1158      C1159   1.508       .  S
C1159      H1163   1.110       .  S
C1159      H1164   1.107       .  S
C1159      H1165   1.111       .  S
C1162      H1166   1.110       .  S
C1162      H1167   1.110       .  S
C1162      H1168   1.104       .  S
C1169      C1170   1.408       .  A
C1169      C1174   1.397       .  A
C1169      H1176   1.084       .  S
C1170      C1205   1.486       .  S
C1170      C1171   1.412       .  A
C1171      C1178   1.499       .  S
C1171      C1172   1.398       .  A
C1172      C1173   1.400       .  A
C1172      H1177   1.084       .  S
C1173      C1174   1.411       .  A
C1174      C1175   1.509       .  S
C1175      H1179   1.111       .  S
C1175      H1180   1.108       .  S
C1175      H1181   1.110       .  S
C1178      H1182   1.107       .  S
C1178      H1183   1.111       .  S
C1178      H1184   1.105       .  S
C1185      C1186   1.399       .  A
C1185      C1190   1.399       .  A
C1185      H1192   1.085       .  S
C1186      C1187   1.408       .  A
C1187      C1194   1.502       .  S
C1187      C1188   1.390       .  A
C1188      C1189   1.397       .  A
C1188      H1193   1.085       .  S
C1189      C1190   1.411       .  A
C1190      C1191   1.506   1_554  S
C1191      H1195   1.111       .  S
C1191      H1196   1.110       .  S
C1191      H1197   1.110       .  S
C1194      H1198   1.110       .  S
C1194      H1199   1.107       .  S
C1194      H1200   1.106       .  S
C1201      C1202   1.406       .  A
C1201      C1206   1.402       .  A
C1201      H1208   1.084       .  S
C1202      C1203   1.415       .  A
C1203      C1210   1.509       .  S
C1203      C1204   1.398       .  A
C1204      C1205   1.406       .  A
C1204      H1209   1.083       .  S
C1205      C1206   1.411       .  A
C1206      C1207   1.501       .  S
C1207      H1211   1.107       .  S
C1207      H1212   1.108       .  S
C1207      H2493   1.110       .  S
C1210      H1214   1.109       .  S
C1210      H1215   1.110       .  S
C1210      H1216   1.111       .  S
H1213      C2487   1.110   1_455  S
C1217      C1218   1.403       .  A
C1217      C1222   1.408       .  A
C1217      H1224   1.084       .  S
C1218      C1219   1.414       .  A
C1219      C1226   1.504       .  S
C1219      C1220   1.407       .  A
C1220      C1221   1.403       .  A
C1220      H1225   1.084       .  S
C1221      C1222   1.418       .  A
C1222      C1223   1.508       .  S
C1223      H1227   1.110       .  S
C1223      H1228   1.111       .  S
C1223      H1229   1.111       .  S
C1226      H1230   1.110       .  S
C1226      H1231   1.105       .  S
C1226      H1232   1.111       .  S
C1233      C1234   1.405       .  A
C1233      C2518   1.406       .  A
C1233      H1240   1.078       .  S
C1234      C1235   1.419       .  A
C1235      C1242   1.509       .  S
C1235      C2516   1.397       .  A
C1236      C2515   1.398       .  A
C1236      C1237   1.399       .  A
C1236      H1241   1.085       .  S
C1237      C1238   1.408       .  A
C1238      C1239   1.505       .  S
C1238      C2513   1.405   1_455  A
C1239      H1243   1.108       .  S
C1239      H1244   1.110       .  S
C1239      H1245   1.110       .  S
C1242      H1246   1.111       .  S
C1242      H1247   1.110       .  S
C1242      H2528   1.109       .  S
H1248      C2522   1.110       .  S
C1249      C1250   1.399       .  A
C1249      C1254   1.397       .  A
C1249      H1256   1.084       .  S
C1250      C1251   1.418       .  A
C1251      C1258   1.507       .  S
C1251      C1252   1.408       .  A
C1252      C1253   1.405       .  A
C1252      H1257   1.082       .  S
C1253      C1254   1.422       .  A
C1254      C1255   1.507       .  S
C1255      H1259   1.111       .  S
C1255      H1260   1.109       .  S
C1255      H1261   1.100       .  S
C1258      H1262   1.109       .  S
C1258      H1263   1.110       .  S
C1258      H1264   1.111       .  S
C1265      C1266   1.410       .  A
C1265      C1270   1.410       .  A
C1265      H1272   1.084       .  S
C1266      C1267   1.420   1_554  A
C1267      C1274   1.508       .  S
C1267      C1268   1.407   1_556  A
C1268      C1269   1.402       .  A
C1268      H1273   1.085       .  S
C1269      C1270   1.409       .  A
C1270      C2551   1.505       .  S
C1271      C2550   1.506       .  S
C1271      H1275   1.111       .  S
C1271      H1276   1.109       .  S
C1271      H1277   1.110       .  S
C1274      H1278   1.110       .  S
C1274      H1279   1.111       .  S
C1274      H1280   1.111       .  S
In1281     O1283   2.233       .  S
In1281     O1284   2.242       .  S
In1281     O1292   2.287       .  S
In1281     O1286   2.280       .  S
In1281     O1288   2.231       .  S
In1281     O1289   2.271       .  S
In1281     O1290   2.285       .  S
In1281     O1293   2.249       .  S
C1282      O1288   1.262       .  A
C1282      O1290   1.258       .  A
C1282      C1399   1.481   1_556  S
O1283      C1291   1.263       .  A
O1284      C1291   1.257       .  A
C1285      O1292   1.260       .  A
C1285      O1286   1.260       .  A
C1285      C1439   1.485       .  S
C1287      O1289   1.260       .  A
C1287      O1293   1.260       .  A
C1287      C1906   1.491       .  S
C1291      C1890   1.484       .  S
In1294     O1296   2.256       .  S
In1294     O1297   2.261       .  S
In1294     O1301   2.220       .  S
In1294     O1302   2.270       .  S
In1294     O1303   2.302       .  S
C1295      O1301   1.257       .  A
C1295      O1303   1.265       .  A
C1295      C1387   1.485       .  S
O1296      C1304   1.264       .  A
O1297      C1304   1.262       .  A
C1298      O1305   1.260       .  A
C1298      O1299   1.261       .  A
C1298      C1452   1.476       .  S
C1300      O1306   1.262       .  A
C1300      C1909   1.480       .  S
C1304      C1861   1.485       .  S
In1307     O1309   2.201       .  S
In1307     O1310   2.164       .  S
In1307     O1318   2.197       .  S
In1307     O1312   2.231       .  S
In1307     O1314   2.259       .  S
In1307     O1315   2.202       .  S
In1307     O1316   2.170       .  S
In1307     O1319   2.174       .  S
C1308      O1314   1.278       .  A
C1308      O1316   1.269       .  A
C1308      C1397   1.505       .  S
O1309      C1317   1.270       .  A
O1310      C1317   1.273       .  A
C1311      O1318   1.269       .  A
C1311      O1312   1.279       .  A
C1311      C1797   1.477       .  S
C1313      O1315   1.272       .  A
C1313      O1319   1.272       .  A
C1313      C1813   1.464       .  S
C1317      C1826   1.454       .  S
In1320     O1322   2.214       .  S
In1320     O1323   2.175       .  S
In1320     O1331   2.210       .  S
In1320     O1325   2.259       .  S
In1320     O1327   2.228       .  S
In1320     O1328   2.258       .  S
In1320     O1329   2.243       .  S
In1320     O1332   2.180       .  S
C1321      O1327   1.275       .  A
C1321      O1329   1.264       .  A
C1321      C1392   1.482       .  S
O1322      C1330   1.267       .  A
O1323      C1330   1.274       .  A
C1324      O1331   1.268       .  A
C1324      O1325   1.274       .  A
C1324      C1762   1.494       .  S
C1326      O1328   1.271       .  A
C1326      O1332   1.267       .  A
C1326      C1781   1.474       .  S
C1330      C1829   1.458   1_556  S
In1333     O1335   2.194       .  S
In1333     O1336   2.232       .  S
In1333     O1344   2.243       .  S
In1333     O1338   2.312       .  S
In1333     O1340   2.289       .  S
In1333     O1341   2.263       .  S
In1333     O1342   2.281       .  S
In1333     O1345   2.201       .  S
C1334      O1340   1.266       .  A
C1334      O1342   1.258       .  A
C1334      C1404   1.497       .  S
O1335      C1343   1.263       .  A
O1336      C1343   1.264       .  A
C1337      O1344   1.256       .  A
C1337      O1338   1.270       .  A
C1337      C1717   1.501       .  S
C1339      O1341   1.264       .  A
C1339      O1345   1.263       .  A
C1339      C1730   1.474       .  S
C1343      C1746   1.462       .  S
In1346     O1348   2.217       .  S
In1346     O1349   2.227       .  S
In1346     O1357   2.221   1_565  S
In1346     O1351   2.233   1_655  S
In1346     O1994   2.254       .  S
C1347      O1353   1.256       .  A
C1347      O1995   1.265       .  A
C1347      C2025   1.501       .  S
O1348      C1356   1.260       .  A
O1349      C1356   1.259       .  A
C1350      O1357   1.259   1_465  A
C1350      O1351   1.260       .  A
C1350      C1413   1.451   1_565  S
C1352      O1354   1.260       .  A
C1352      C1698   1.474       .  S
O1354     In1986   2.261       .  S
O1355      C1987   1.263       .  A
C1356      C1749   1.464   1_565  S
In1359     O1361   2.290       .  S
In1359     O1362   2.253       .  S
In1359     O1370   2.250       .  S
In1359     O1364   2.264       .  S
In1359     O2006   2.275   1_545  S
In1359     O1367   2.272       .  S
In1359     O2008   2.260       .  S
In1359     O1371   2.271       .  S
C1360      O1366   1.259       .  A
C1360      O1368   1.261       .  A
C1360      C1390   1.483       .  S
O1361      C1369   1.261       .  A
O1362      C1369   1.259       .  A
C1363      O1370   1.263       .  A
C1363      O1364   1.263       .  A
C1363      C1504   1.474       .  S
C1365      O1367   1.259       .  A
C1365      O1371   1.259       .  A
C1365      C1669   1.496       .  S
O1366     In1999   2.278       .  S
O1368     In1999   2.245       .  S
C1369      C1653   1.495       .  S
In1372     O1374   2.273       .  S
In1372     O1375   2.248       .  S
In1372     O1383   2.283       .  S
In1372     O1377   2.279       .  S
In1372     O1379   2.286       .  S
In1372     O1380   2.259       .  S
In1372     O1381   2.259       .  S
In1372     O1384   2.269       .  S
C1373      O1379   1.261       .  A
C1373      O1381   1.262       .  A
C1373      C1402   1.491       .  S
O1374      C1382   1.265       .  A
O1375      C1382   1.261       .  A
C1376      O1383   1.261       .  A
C1376      O1377   1.261       .  A
C1376      C1491   1.488       .  S
C1378      O1380   1.258       .  A
C1378      O1384   1.261       .  A
C1378      C1666   1.482       .  S
C1382      C1618   1.498       .  S
C1385      C1987   1.500       .  S
C1385      C1386   1.527   1_556  S
C1385      C1391   1.522       .  S
C1385      C1389   1.536   1_556  S
C1386      H1393   1.087       .  S
C1386      C1387   1.369       .  D
C1387      C1388   1.551       .  S
C1388      C1392   1.559   1_554  S
C1388      C1390   1.550       .  S
C1388      H1394   1.111       .  S
C1389      H2035   1.086   1_554  S
C1389      C1390   1.367       .  D
C1391      H1396   1.087       .  S
C1391      C1392   1.359       .  D
H1395      C2029   1.086   1_546  S
C1397      C1398   1.524       .  S
C1397      C1403   1.535       .  S
C1397      C1401   1.537       .  S
C1398      H1405   1.088       .  S
C1398      C1399   1.358       .  D
C1399      C1400   1.553       .  S
C1400      C1404   1.565       .  S
C1400      C1402   1.548   1_554  S
C1400      H1406   1.111   1_554  S
C1401      H1407   1.087       .  S
C1401      C1402   1.366   1_554  D
C1403      H1408   1.086       .  S
C1403      C1404   1.373       .  D
In1409     O1412   2.234       .  S
In1409     O2056   2.249       .  S
In1409     O1417   2.233       .  S
In1409     O2058   2.255       .  S
In1409     O1421   2.270       .  S
C1410      O1416   1.259       .  A
C1410      O1418   1.263       .  A
C1410      C1513   1.500       .  S
O1411      C1419   1.257       .  A
C1413      O1420   1.260       .  A
C1413      O1414   1.261       .  A
C1415      O1417   1.257       .  A
C1415      O1421   1.261       .  A
C1415      C1605   1.483       .  S
O1416     In2049   2.248       .  S
O1418     In2049   2.239       .  S
C1419      C1589   1.469       .  S
In1422     O1424   2.189       .  S
In1422     O1425   2.218       .  S
In1422     O1433   2.220       .  S
In1422     O1427   2.292       .  S
In1422     O1429   2.314       .  S
In1422     O1430   2.240       .  S
In1422     O1431   2.228       .  S
In1422     O1434   2.205       .  S
C1423      O1429   1.272       .  A
C1423      O1431   1.262       .  A
C1423      C1527   1.502       .  S
O1424      C1432   1.264       .  A
O1425      C1432   1.267       .  A
C1426      O1433   1.261       .  A
C1426      O1427   1.274       .  A
C1426      C1650   1.494       .  S
C1428      O1430   1.265       .  A
C1428      O1434   1.265       .  A
C1428      C1842   1.475       .  S
C1432      C1586   1.470       .  S
In1435     O1437   2.270       .  S
In1435     O1438   2.234       .  S
In1435     O1446   2.283       .  S
In1435     O1440   2.269       .  S
In1435     O1442   2.246       .  S
In1435     O1443   2.265       .  S
In1435     O1444   2.287       .  S
In1435     O1447   2.262       .  S
C1436      O1442   1.259       .  A
C1436      O1444   1.263       .  A
C1436      C1525   1.515       .  S
O1437      C1445   1.266       .  A
O1438      C1445   1.262       .  A
C1439      O1446   1.264       .  A
C1439      O1440   1.261       .  A
C1441      O1443   1.256       .  A
C1441      O1447   1.259       .  A
C1441      C1573   1.485       .  S
C1445      C1765   1.484       .  S
In1448     O1450   2.300       .  S
In1448     O1455   2.273       .  S
In1448     O1457   2.269       .  S
C1449      O1455   1.258       .  A
C1449      O1457   1.262       .  A
C1449      C1518   1.487       .  S
O1451      C1458   1.261       .  A
C1452      O1459   1.262   1_455  A
C1452      O1453   1.261       .  A
C1454      O1456   1.262       .  A
C1454      O1460   1.261       .  A
C1454      C1570   1.496       .  S
C1458      C1714   1.500       .  S
In1461     O1463   2.219       .  S
In1461     O1464   2.187       .  S
In1461     O1472   2.220       .  S
In1461     O1466   2.277       .  S
In1461     O1468   2.255       .  S
In1461     O1469   2.251       .  S
In1461     O1470   2.246       .  S
In1461     O1473   2.173       .  S
C1462      O1468   1.275       .  A
C1462      O1470   1.263       .  A
C1462      C1520   1.490       .  S
O1463      C1471   1.265       .  A
O1464      C1471   1.271       .  A
C1465      O1472   1.266       .  A
C1465      O1466   1.276       .  A
C1465      C1621   1.499       .  S
C1467      O1469   1.270       .  A
C1467      O1473   1.268       .  A
C1467      C1877   1.470       .  S
C1471      C1557   1.457       .  S
In1474     O1476   2.202       .  S
In1474     O1477   2.161       .  S
In1474     O1485   2.226       .  S
In1474     O1479   2.233       .  S
In1474     O1481   2.241       .  S
In1474     O1482   2.220       .  S
In1474     O1483   2.217       .  S
In1474     O1486   2.180       .  S
C1475      O1481   1.277       .  A
C1475      O1483   1.272       .  A
C1475      C1530   1.479       .  S
O1476      C1484   1.275       .  A
O1477      C1484   1.278       .  A
C1478      O1485   1.273       .  A
C1478      O1479   1.278       .  A
C1478      C1858   1.492       .  S
C1480      O1482   1.275       .  A
C1480      O1486   1.272       .  A
C1480      C1637   1.484       .  S
C1484      C1554   1.460       .  S
In1487     O1489   2.235       .  S
In1487     O1490   2.252       .  S
In1487     O1498   2.288       .  S
In1487     O1492   2.275       .  S
In1487     O1494   2.251       .  S
In1487     O1495   2.251       .  S
In1487     O1496   2.268       .  S
In1487     O1499   2.251       .  S
C1488      O1494   1.262       .  A
C1488      O1496   1.258       .  A
C1488      C1532   1.473       .  S
O1489      C1497   1.259       .  A
O1490      C1497   1.260       .  A
C1491      O1498   1.263       .  A
C1491      O1492   1.261       .  A
C1493      O1495   1.256       .  A
C1493      O1499   1.261       .  A
C1493      C1538   1.489       .  S
C1497      C1682   1.468       .  S
In1500     O2142   2.242       .  S
In1500     O2143   2.257       .  S
In1500     O1511   2.262   1_565  S
In1500     O1505   2.278       .  S
In1500     O1507   2.237       .  S
In1500     O1508   2.229   1_565  S
In1500     O2149   2.288       .  S
In1500     O1512   2.262       .  S
C1501      O1507   1.256       .  A
C1501      O2149   1.261       .  A
C1501      C2155   1.479       .  S
O1502     In2140   2.232       .  S
O1502      C1510   1.259       .  A
O1503     In2140   2.255       .  S
O1503      C1510   1.262       .  A
C1504      O1511   1.257       .  A
C1504      O1505   1.259   1_545  A
C1506      O1508   1.260       .  A
C1506      O1512   1.263   1_545  A
C1506      C1541   1.477       .  S
O1509     In2140   2.281       .  S
O1509      C2141   1.260       .  A
C1510      C1794   1.490       .  S
C1513      C1514   1.524       .  S
C1513      C1519   1.532       .  S
C1513      C1517   1.539       .  S
C1514      H2161   1.085       .  S
C1514      C1515   1.363       .  D
C1515      C2141   1.473       .  S
C1515      C1516   1.542       .  S
C1516      C1520   1.557       .  S
C1516      C1518   1.550       .  S
C1516      H1522   1.111       .  S
C1517      H1523   1.086       .  S
C1517      C1518   1.369       .  D
C1519      H1524   1.087       .  S
C1519      C1520   1.363       .  D
H1521      C2154   1.083   1_545  S
C1525      C1526   1.534       .  S
C1525      C1531   1.519       .  S
C1525      C1529   1.536       .  S
C1526      H1533   1.086       .  S
C1526      C1527   1.374       .  D
C1527      C1528   1.559       .  S
C1528      C1532   1.555       .  S
C1528      C1530   1.549       .  S
C1528      H1534   1.110       .  S
C1529      H1535   1.086       .  S
C1529      C1530   1.373       .  D
C1531      H1536   1.088       .  S
C1531      C1532   1.356       .  D
C1537      C1538   1.403       .  A
C1537      C1542   1.399       .  A
C1537      H1544   1.084       .  S
C1538      C1539   1.423       .  A
C1539      C1546   1.507       .  S
C1539      C1540   1.409       .  A
C1540      C1541   1.401       .  A
C1540      H1545   1.084       .  S
C1541      C1542   1.412       .  A
C1542      C1543   1.506       .  S
C1543      H1547   1.111       .  S
C1543      H1548   1.106       .  S
C1543      H1549   1.108       .  S
C1546      H1550   1.110       .  S
C1546      H1551   1.110       .  S
C1546      H1552   1.111       .  S
C1553      C1554   1.399       .  A
C1553      C1558   1.394       .  A
C1553      H1560   1.085       .  S
C1554      C1555   1.408       .  A
C1555      C1562   1.500       .  S
C1555      C1556   1.400       .  A
C1556      C1557   1.399       .  A
C1556      H1561   1.084       .  S
C1557      C1558   1.411       .  A
C1558      C1559   1.505       .  S
C1559      H1563   1.110       .  S
C1559      H1564   1.111       .  S
C1559      H1565   1.106       .  S
C1562      H1566   1.110       .  S
C1562      H1567   1.110       .  S
C1562      H1568   1.108       .  S
C1569      C1570   1.409       .  A
C1569      C1574   1.408       .  A
C1569      H1576   1.084       .  S
C1570      C1571   1.420       .  A
C1571      C1578   1.506       .  S
C1571      C1572   1.406       .  A
C1572      C1573   1.402       .  A
C1572      H1577   1.084       .  S
C1573      C1574   1.413       .  A
C1574      C1575   1.507       .  S
C1575      H1579   1.111       .  S
C1575      H1580   1.108       .  S
C1575      H1581   1.109       .  S
C1578      H1583   1.110       .  S
C1578      H1584   1.111       .  S
C1585      C1586   1.405   1_455  A
C1585      C1590   1.401       .  A
C1585      H1592   1.084       .  S
C1586      C1587   1.414       .  A
C1587      C1594   1.510       .  S
C1587      C1588   1.394       .  A
C1588      C1589   1.402   1_655  A
C1588      H1593   1.083       .  S
C1589      C1590   1.411       .  A
C1591      H1595   1.111       .  S
C1591      H1596   1.109       .  S
C1591      H1597   1.110       .  S
C1594      H1598   1.109       .  S
C1594      H1599   1.111       .  S
C1594      H1600   1.111       .  S
C1601      C1602   1.407       .  A
C1601      C1606   1.408       .  A
C1601      H1608   1.083       .  S
C1602      C1778   1.488       .  S
C1602      C1603   1.424       .  A
C1603      C1610   1.513       .  S
C1603      C1604   1.397       .  A
C1604      C1605   1.399       .  A
C1604      H1609   1.084       .  S
C1605      C1606   1.413       .  A
C1606      C1607   1.506       .  S
C1607      H1611   1.111       .  S
C1607      H1612   1.110       .  S
C1607      H1613   1.108       .  S
C1610      H1614   1.106       .  S
C1610      H1615   1.107       .  S
C1610      H1616   1.111       .  S
C1617      C1618   1.407       .  A
C1617      C1622   1.412       .  A
C1617      H1624   1.084       .  S
C1618      C1619   1.420       .  A
C1619      C1626   1.509       .  S
C1619      C1620   1.408       .  A
C1620      C1621   1.407       .  A
C1620      H1625   1.084       .  S
C1621      C1622   1.416       .  A
C1622      C1623   1.500       .  S
C1623      H1627   1.105       .  S
C1623      H1628   1.109       .  S
C1623      H1629   1.110       .  S
C1626      H1630   1.110       .  S
C1626      H1631   1.111       .  S
C1626      H1632   1.111       .  S
C1633      C1634   1.404       .  A
C1633      C1638   1.395       .  A
C1633      H1640   1.085       .  S
C1634      C1733   1.483       .  S
C1634      C1635   1.409       .  A
C1635      C1642   1.503       .  S
C1635      C1636   1.406       .  A
C1636      C1637   1.410       .  A
C1636      H1641   1.084       .  S
C1637      C1638   1.419       .  A
C1638      C1639   1.511       .  S
C1639      H1643   1.111       .  S
C1639      H1644   1.110       .  S
C1639      H1645   1.108       .  S
C1642      H1646   1.110       .  S
C1642      H1647   1.109       .  S
C1642      H1648   1.110       .  S
C1649      C1654   1.403       .  A
C1649      H1656   1.084       .  S
C1650      C1651   1.421       .  A
C1651      C1658   1.506       .  S
C1652      C1653   1.410       .  A
C1652      H1657   1.084       .  S
C1653      C1654   1.416       .  A
C1654      C1655   1.510       .  S
C1655      H1659   1.111       .  S
C1655      H1660   1.109       .  S
C1655      H1661   1.111       .  S
C1658      H1662   1.105       .  S
C1658      H1663   1.110       .  S
C1658      H2304   1.110       .  S
H1664      C2298   1.108       .  S
C1665      C1666   1.401       .  A
C1665      C1670   1.409       .  A
C1665      H1672   1.084       .  S
C1666      C1667   1.414   1_556  A
C1667      C1674   1.508       .  S
C1667      C1668   1.409       .  A
C1668      C1669   1.407       .  A
C1668      H1673   1.083       .  S
C1669      C1670   1.420   1_554  A
C1670      C1671   1.507       .  S
C1671      H1675   1.111       .  S
C1671      H1676   1.110       .  S
C1671      H1677   1.110       .  S
C1674      H1678   1.111       .  S
C1674      H1679   1.110       .  S
C1674      H1680   1.111       .  S
C1681      C1682   1.404       .  A
C1681      C1686   1.406       .  A
C1681      H1688   1.084       .  S
C1682      C1683   1.409       .  A
C1683      C1690   1.509       .  S
C1683      C1684   1.396       .  A
C1684      C1685   1.407       .  A
C1684      H1689   1.084       .  S
C1685      C1893   1.493       .  S
C1685      C1686   1.413       .  A
C1686      C1687   1.502       .  S
C1687      H1691   1.109       .  S
C1687      H1692   1.110       .  S
C1687      H1693   1.109       .  S
C1690      H1694   1.110       .  S
C1690      H1695   1.108       .  S
C1690      H1696   1.110       .  S
C1697      C1698   1.397       .  A
C1697      C1702   1.394       .  A
C1697      H1704   1.085       .  S
C1698      C1699   1.413       .  A
C1699      C1706   1.505       .  S
C1699      C1700   1.409       .  A
C1700      C1701   1.407       .  A
C1700      H1705   1.082       .  S
C1701      C1874   1.490       .  S
C1701      C1702   1.424       .  A
C1702      C1703   1.513   1_655  S
C1703      H1707   1.111       .  S
C1703      H1708   1.109   1_455  S
C1703      H1709   1.108       .  S
C1706      H1710   1.110       .  S
C1713      C1714   1.405       .  A
C1713      C2358   1.407       .  A
C1713      H1720   1.084       .  S
C1714      C2355   1.422       .  A
C1715      C2354   1.420       .  A
C1715      C1716   1.418       .  A
C1716      C1717   1.406       .  A
C1717      C1718   1.420       .  A
C1718      C1719   1.509       .  S
C1718      C2353   1.411       .  A
C1719      H2363   1.111       .  S
C1719      H1724   1.109       .  S
C1719      H1725   1.110       .  S
C1722      H2366   1.110   1_545  S
C1722      H1727   1.110       .  S
C1722      H1728   1.109       .  S
H1723      C2359   1.111       .  S
H1726      C2362   1.110       .  S
C1729      C1730   1.398       .  A
C1729      C1734   1.395       .  A
C1729      H1736   1.084       .  S
C1730      C1731   1.410       .  A
C1731      C1738   1.501       .  S
C1731      C1732   1.409       .  A
C1732      C1733   1.409       .  A
C1732      H1737   1.083       .  S
C1733      C1734   1.415       .  A
C1734      C1735   1.505       .  S
C1735      H1739   1.111       .  S
C1735      H1740   1.106       .  S
C1735      H1741   1.108       .  S
C1738      H1742   1.110       .  S
C1738      H1743   1.109       .  S
C1738      H1744   1.110       .  S
C1745      C1746   1.398       .  A
C1745      C1750   1.392   1_554  A
C1745      H1752   1.085       .  S
C1746      C1747   1.410   1_554  A
C1747      C1754   1.505       .  S
C1747      C1748   1.404       .  A
C1748      C1749   1.405       .  A
C1748      H1753   1.084       .  S
C1749      C1750   1.414       .  A
C1751      H1755   1.111   1_556  S
C1751      H1756   1.110       .  S
C1751      H1757   1.109   1_545  S
C1754      H1758   1.110       .  S
C1754      H1759   1.110       .  S
C1754      H1760   1.111       .  S
C1761      C1762   1.406       .  A
C1761      C1766   1.402       .  A
C1761      H1768   1.084       .  S
C1762      C1763   1.420       .  A
C1763      C1770   1.508       .  S
C1763      C1764   1.414       .  A
C1764      C1765   1.405       .  A
C1764      H1769   1.084       .  S
C1765      C1766   1.412       .  A
C1766      C1767   1.510       .  S
C1767      H1771   1.111       .  S
C1767      H1772   1.110       .  S
C1767      H1773   1.110       .  S
C1770      H1774   1.110       .  S
C1770      H1775   1.108       .  S
C1770      H1776   1.111       .  S
C1777      C1778   1.402       .  A
C1777      C1782   1.394   1_545  A
C1777      H1784   1.085       .  S
C1778      C1779   1.410       .  A
C1779      C1786   1.497       .  S
C1779      C2420   1.407       .  A
C1780      C2419   1.409       .  A
C1780      C1781   1.404       .  A
C1780      H1785   1.084       .  S
C1781      C2422   1.411       .  A
C1782      C2423   1.505       .  S
C1782      C2421   1.411       .  A
C1783      C2422   1.505       .  S
C1783      H2427   1.110       .  S
C1783      H1788   1.110       .  S
C1783      H1789   1.111       .  S
C1786      H1790   1.102       .  S
C1786      H1791   1.110       .  S
C1786      H1792   1.107   1_556  S
H1787      C2423   1.110       .  S
C1793      C1794   1.407       .  A
C1793      C1798   1.405       .  A
C1793      H1800   1.084       .  S
C1794      C1795   1.418       .  A
C1795      C1802   1.505       .  S
C1795      C1796   1.403       .  A
C1796      C1797   1.396       .  A
C1796      H1801   1.083       .  S
C1797      C1798   1.415       .  A
C1798      C1799   1.508       .  S
C1799      H1803   1.110       .  S
C1799      H1804   1.107       .  S
C1799      H1805   1.111       .  S
C1802      H1806   1.110       .  S
C1802      H1807   1.110       .  S
C1802      H1808   1.105       .  S
C1809      C1810   1.407       .  A
C1809      C1814   1.397       .  A
C1809      H1816   1.083       .  S
C1810      C1845   1.487       .  S
C1810      C1811   1.412       .  A
C1811      C1818   1.496       .  S
C1811      C1812   1.397       .  A
C1812      C1813   1.399       .  A
C1812      H1817   1.085       .  S
C1813      C1814   1.412       .  A
C1814      C1815   1.509       .  S
C1815      H1819   1.111       .  S
C1815      H1820   1.108       .  S
C1815      H1821   1.110       .  S
C1818      H1822   1.106       .  S
C1818      H1823   1.110       .  S
C1818      H1824   1.111       .  S
C1825      C1826   1.401       .  A
C1825      C1830   1.401   1_554  A
C1825      H1832   1.084       .  S
C1826      C1827   1.409       .  A
C1827      C1834   1.500       .  S
C1827      C1828   1.391       .  A
C1828      C1829   1.396       .  A
C1828      H1833   1.085       .  S
C1829      C1830   1.410   1_554  A
C1830      C1831   1.506       .  S
C1831      H1835   1.111       .  S
C1831      H1836   1.110       .  S
C1831      H1837   1.110       .  S
C1834      H1838   1.110       .  S
C1834      H1839   1.106       .  S
C1834      H1840   1.107       .  S
C1841      C1842   1.405       .  A
C1841      C1846   1.402       .  A
C1841      H1848   1.084       .  S
C1842      C1843   1.414       .  A
C1843      C1850   1.508       .  S
C1843      C1844   1.397       .  A
C1844      C1845   1.406       .  A
C1844      H1849   1.083       .  S
C1845      C1846   1.411       .  A
C1846      C1847   1.502       .  S
C1847      H1851   1.107       .  S
C1847      H1852   1.109       .  S
C1850      H1854   1.108       .  S
C1850      H1855   1.110       .  S
C1850      H1856   1.111       .  S
C1857      C1858   1.406       .  A
C1857      C1862   1.409       .  A
C1857      H1864   1.084       .  S
C1858      C1859   1.414       .  A
C1859      C1866   1.504       .  S
C1859      C1860   1.408       .  A
C1860      C1861   1.403       .  A
C1860      H1865   1.084       .  S
C1861      C1862   1.417       .  A
C1862      C1863   1.508       .  S
C1863      H1867   1.110       .  S
C1863      H1868   1.107       .  S
C1863      H1869   1.111       .  S
C1866      H1870   1.109       .  S
C1866      H1871   1.105       .  S
C1866      H1872   1.111       .  S
C1873      C1874   1.407       .  A
C1873      H1880   1.077       .  S
C1874      C1875   1.417   1_655  A
C1875      C1882   1.508       .  S
C1876      C1877   1.398       .  A
C1876      H1881   1.085       .  S
C1877      C1878   1.407       .  A
C1878      C1879   1.504       .  S
C1879      H1883   1.108       .  S
C1879      H1884   1.110       .  S
C1879      H1885   1.110       .  S
C1882      H1886   1.111       .  S
C1882      H1887   1.110   1_455  S
C1889      C1890   1.399       .  A
C1889      C1894   1.398       .  A
C1889      H1896   1.084       .  S
C1890      C1891   1.419       .  A
C1891      C1898   1.507       .  S
C1891      C1892   1.407       .  A
C1892      C1893   1.407       .  A
C1892      H1897   1.085       .  S
C1893      C1894   1.421       .  A
C1894      C1895   1.507       .  S
C1895      H1899   1.111       .  S
C1895      H1900   1.108       .  S
C1895      H1901   1.105       .  S
C1898      H1902   1.109       .  S
C1898      H1903   1.110       .  S
C1898      H1904   1.111       .  S
C1905      C1906   1.410   1_454  A
C1905      C1910   1.410       .  A
C1905      H1912   1.084       .  S
C1906      C1907   1.418       .  A
C1907      C1914   1.508       .  S
C1907      C1908   1.404   1_556  A
C1908      C1909   1.401   1_655  A
C1908      H1913   1.085       .  S
C1909      C1910   1.411       .  A
C1911      H1915   1.111       .  S
C1911      H1916   1.111       .  S
C1911      H1917   1.110       .  S
C1914      H1918   1.109       .  S
C1914      H1919   1.111       .  S
C1914      H1920   1.111       .  S
In1921     O1923   2.241       .  S
In1921     O1924   2.245       .  S
In1921     O1932   2.270       .  S
In1921     O1926   2.276       .  S
In1921     O1928   2.242       .  S
In1921     O1929   2.257       .  S
In1921     O1930   2.291       .  S
In1921     O1933   2.248       .  S
C1922      O1928   1.261       .  A
C1922      O1930   1.258       .  A
C1922      C2039   1.485   1_556  S
O1923      C1931   1.260       .  A
O1924      C1931   1.258       .  A
C1925      O1932   1.260       .  A
C1925      O1926   1.264       .  A
C1925      C2079   1.482       .  S
C1927      O1929   1.259       .  A
C1927      O1933   1.258       .  A
C1927      C2546   1.480       .  S
C1931      C2530   1.479       .  S
In1934     O1936   2.259       .  S
In1934     O1937   2.252       .  S
In1934     O1941   2.227       .  S
In1934     O1942   2.268       .  S
In1934     O1943   2.302       .  S
C1935      O1941   1.257       .  A
C1935      O1943   1.265       .  A
C1935      C2027   1.487       .  S
O1936      C1944   1.265       .  A
O1937      C1944   1.259       .  A
C1938      O1945   1.260       .  A
C1938      O1939   1.265       .  A
C1938      C2092   1.481       .  S
C1940      O1946   1.260       .  A
C1940      C2549   1.469       .  S
C1944      C2501   1.485       .  S
In1947     O1949   2.212       .  S
In1947     O1950   2.156       .  S
In1947     O1958   2.186       .  S
In1947     O1952   2.252       .  S
In1947     O1954   2.273       .  S
In1947     O1955   2.208       .  S
In1947     O1956   2.181       .  S
In1947     O1959   2.190       .  S
C1948      O1954   1.278       .  A
C1948      O1956   1.267       .  A
C1948      C2037   1.511       .  S
O1949      C1957   1.270       .  A
O1950      C1957   1.271       .  A
C1951      O1958   1.267       .  A
C1951      O1952   1.281       .  A
C1951      C2437   1.480       .  S
C1953      O1955   1.270       .  A
C1953      O1959   1.271       .  A
C1953      C2453   1.467       .  S
C1957      C2466   1.452       .  S
In1960     O1962   2.208       .  S
In1960     O1963   2.176   1_556  S
In1960     O1971   2.212       .  S
In1960     O1965   2.262       .  S
In1960     O1967   2.237       .  S
In1960     O1968   2.255       .  S
In1960     O1969   2.246       .  S
In1960     O1972   2.175       .  S
C1961      O1967   1.274       .  A
C1961      O1969   1.263       .  A
C1961      C2032   1.484       .  S
O1962      C1970   1.266       .  A
O1963      C1970   1.273   1_554  A
C1964      O1971   1.266       .  A
C1964      O1965   1.274       .  A
C1964      C2402   1.490       .  S
C1966      O1968   1.270       .  A
C1966      O1972   1.266       .  A
C1966      C2421   1.471       .  S
C1970      C2469   1.457   1_556  S
In1973     O1975   2.194       .  S
In1973     O1976   2.218       .  S
In1973     O1984   2.238       .  S
In1973     O1978   2.304       .  S
In1973     O1980   2.295       .  S
In1973     O1981   2.265       .  S
In1973     O1982   2.278       .  S
In1973     O1985   2.207       .  S
C1974      O1980   1.266       .  A
C1974      O1982   1.256       .  A
C1974      C2044   1.496       .  S
O1975      C1983   1.263       .  A
O1976      C1983   1.263       .  A
C1977      O1984   1.257       .  A
C1977      O1978   1.268       .  A
C1977      C2357   1.495       .  S
C1979      O1981   1.261       .  A
C1979      O1985   1.261       .  A
C1979      C2370   1.474       .  S
C1983      C2386   1.461   1_554  S
In1986     O1988   2.234       .  S
In1986     O1989   2.210       .  S
In1986     O1997   2.223       .  S
In1986     O1991   2.251   1_655  S
C1987      O1993   1.255       .  A
O1988      C1996   1.261       .  A
O1989      C1996   1.258       .  A
C1990      O1997   1.259   1_455  A
C1990      O1991   1.261       .  A
C1990      C2053   1.457       .  S
C1992      O1994   1.262       .  A
C1992      C2338   1.470       .  S
C1996      C2389   1.466       .  S
In1999     O2001   2.274       .  S
In1999     O2002   2.253       .  S
In1999     O2010   2.248       .  S
In1999     O2004   2.247       .  S
In1999     O2007   2.266       .  S
In1999     O2011   2.253       .  S
C2000      O2006   1.258   1_545  A
C2000      O2008   1.261       .  A
C2000      C2030   1.484   1_545  S
O2001      C2009   1.260       .  A
O2002      C2009   1.260       .  A
C2003      O2010   1.262       .  A
C2003      O2004   1.262       .  A
C2003      C2144   1.466       .  S
C2005      O2007   1.259       .  A
C2005      O2011   1.260       .  A
C2005      C2309   1.488       .  S
C2009      C2293   1.488       .  S
In2012     O2014   2.274       .  S
In2012     O2015   2.234       .  S
In2012     O2023   2.271       .  S
In2012     O2017   2.271       .  S
In2012     O2019   2.293       .  S
In2012     O2020   2.253       .  S
In2012     O2021   2.261       .  S
In2012     O2024   2.253       .  S
C2013      O2019   1.262       .  A
C2013      O2021   1.261       .  A
C2013      C2042   1.494   1_556  S
O2014      C2022   1.265       .  A
O2015      C2022   1.259       .  A
C2016      O2023   1.260       .  A
C2016      O2017   1.262       .  A
C2016      C2131   1.481       .  S
C2018      O2020   1.258       .  A
C2018      O2024   1.261       .  A
C2018      C2306   1.475       .  S
C2022      C2258   1.495       .  S
C2025      C2026   1.529   1_556  S
C2025      C2031   1.523       .  S
C2025      C2029   1.539   1_556  S
C2026      H2033   1.087       .  S
C2026      C2027   1.370       .  D
C2027      C2028   1.550       .  S
C2028      C2032   1.559   1_554  S
C2028      C2030   1.549       .  S
C2028      H2034   1.110       .  S
C2029      C2030   1.367       .  D
C2031      H2036   1.087       .  S
C2031      C2032   1.359       .  D
C2037      C2038   1.529       .  S
C2037      C2043   1.534       .  S
C2037      C2041   1.540       .  S
C2038      H2045   1.087       .  S
C2038      C2039   1.361       .  D
C2039      C2040   1.551       .  S
C2040      C2044   1.566       .  S
C2040      C2042   1.547       .  S
C2040      H2046   1.111   1_554  S
C2041      H2047   1.087       .  S
C2041      C2042   1.368       .  D
C2043      H2048   1.086       .  S
C2043      C2044   1.372       .  D
In2049     O2052   2.242       .  S
In2049     O2057   2.235       .  S
In2049     O2061   2.269       .  S
C2050      O2056   1.258       .  A
C2050      O2058   1.265       .  A
C2050      C2153   1.507   1_545  S
O2051      C2059   1.256       .  A
C2053      O2060   1.258       .  A
C2053      O2054   1.261       .  A
C2055      O2057   1.258       .  A
C2055      O2061   1.260       .  A
C2055      C2245   1.484       .  S
C2059      C2229   1.464       .  S
In2062     O2064   2.187       .  S
In2062     O2065   2.221       .  S
In2062     O2073   2.204       .  S
In2062     O2067   2.288       .  S
In2062     O2069   2.312       .  S
In2062     O2070   2.230       .  S
In2062     O2071   2.215       .  S
In2062     O2074   2.202       .  S
C2063      O2069   1.273       .  A
C2063      O2071   1.263       .  A
C2063      C2167   1.500       .  S
O2064      C2072   1.264       .  A
O2065      C2072   1.268       .  A
C2066      O2073   1.261       .  A
C2066      O2067   1.276       .  A
C2066      C2290   1.493       .  S
C2068      O2070   1.266       .  A
C2068      O2074   1.266       .  A
C2068      C2482   1.479       .  S
C2072      C2226   1.471       .  S
In2075     O2077   2.267       .  S
In2075     O2078   2.238       .  S
In2075     O2086   2.275       .  S
In2075     O2080   2.269       .  S
In2075     O2082   2.232       .  S
In2075     O2083   2.273       .  S
In2075     O2084   2.270       .  S
In2075     O2087   2.269       .  S
C2076      O2082   1.260       .  A
C2076      O2084   1.264       .  A
C2076      C2165   1.507       .  S
O2077      C2085   1.265       .  A
O2078      C2085   1.262       .  A
C2079      O2086   1.264       .  A
C2079      O2080   1.260       .  A
C2081      O2083   1.258       .  A
C2081      O2087   1.259       .  A
C2081      C2213   1.492       .  S
C2085      C2405   1.480       .  S
In2088     O2090   2.296       .  S
In2088     O2095   2.282       .  S
In2088     O2097   2.277       .  S
C2089      O2095   1.259       .  A
C2089      O2097   1.262       .  A
C2089      C2158   1.492       .  S
O2091      C2098   1.261       .  A
C2092      O2099   1.263   1_455  A
C2092      O2093   1.261       .  A
C2094      O2096   1.261       .  A
C2094      O2100   1.262       .  A
C2094      C2210   1.502       .  S
C2098      C2354   1.506   1_565  S
In2101     O2103   2.216       .  S
In2101     O2104   2.179       .  S
In2101     O2112   2.209       .  S
In2101     O2106   2.265       .  S
In2101     O2108   2.244       .  S
In2101     O2109   2.243       .  S
In2101     O2110   2.239       .  S
In2101     O2113   2.175       .  S
C2102      O2108   1.275       .  A
C2102      O2110   1.264       .  A
C2102      C2160   1.487       .  S
O2103      C2111   1.266       .  A
O2104      C2111   1.272       .  A
C2105      O2112   1.267       .  A
C2105      O2106   1.277       .  A
C2105      C2261   1.494       .  S
C2107      O2109   1.271       .  A
C2107      O2113   1.269       .  A
C2107      C2517   1.471       .  S
C2111      C2197   1.456       .  S
In2114     O2116   2.204       .  S
In2114     O2117   2.167       .  S
In2114     O2125   2.227       .  S
In2114     O2119   2.211       .  S
In2114     O2121   2.233       .  S
In2114     O2122   2.218       .  S
In2114     O2123   2.215       .  S
In2114     O2126   2.184       .  S
C2115      O2121   1.276       .  A
C2115      O2123   1.273       .  A
C2115      C2170   1.476       .  S
O2116      C2124   1.275       .  A
O2117      C2124   1.278       .  A
C2118      O2125   1.274       .  A
C2118      O2119   1.277       .  A
C2118      C2498   1.486       .  S
C2120      O2122   1.276       .  A
C2120      O2126   1.272       .  A
C2120      C2277   1.487       .  S
C2124      C2194   1.464       .  S
In2127     O2129   2.239       .  S
In2127     O2130   2.238       .  S
In2127     O2138   2.278       .  S
In2127     O2132   2.271       .  S
In2127     O2134   2.281       .  S
In2127     O2135   2.231       .  S
In2127     O2136   2.231       .  S
In2127     O2139   2.244       .  S
C2128      O2134   1.261       .  A
C2128      O2136   1.259       .  A
C2128      C2172   1.471       .  S
O2129      C2137   1.261       .  A
O2130      C2137   1.259       .  A
C2131      O2138   1.262       .  A
C2131      O2132   1.259       .  A
C2133      O2135   1.258       .  A
C2133      O2139   1.264       .  A
C2133      C2178   1.486       .  S
C2137      C2322   1.476       .  S
In2140     O2151   2.255       .  S
In2140     O2145   2.256       .  S
In2140     O2147   2.224       .  S
In2140     O2148   2.221       .  S
In2140     O2152   2.250       .  S
C2141      O2147   1.257       .  A
O2142      C2150   1.261       .  A
O2143      C2150   1.262       .  A
C2144      O2151   1.257       .  A
C2144      O2145   1.258       .  A
C2146      O2148   1.260       .  A
C2146      O2152   1.263       .  A
C2146      C2181   1.472       .  S
C2150      C2434   1.494       .  S
C2153      C2154   1.528       .  S
C2153      C2159   1.528       .  S
C2153      C2157   1.543       .  S
C2154      C2155   1.367       .  D
C2155      C2156   1.542       .  S
C2156      C2160   1.557       .  S
C2156      C2158   1.550       .  S
C2156      H2162   1.111       .  S
C2157      H2163   1.086       .  S
C2157      C2158   1.371       .  D
C2159      H2164   1.087       .  S
C2159      C2160   1.361       .  D
C2165      C2166   1.530       .  S
C2165      C2171   1.518       .  S
C2165      C2169   1.532       .  S
C2166      H2173   1.087       .  S
C2166      C2167   1.374       .  D
C2167      C2168   1.561       .  S
C2168      C2172   1.555       .  S
C2168      C2170   1.550       .  S
C2168      H2174   1.110       .  S
C2169      H2175   1.086       .  S
C2169      C2170   1.369       .  D
C2171      H2176   1.088       .  S
C2171      C2172   1.356       .  D
C2177      C2178   1.404       .  A
C2177      C2182   1.400       .  A
C2177      H2184   1.084       .  S
C2178      C2179   1.422       .  A
C2179      C2186   1.508       .  S
C2179      C2180   1.405       .  A
C2180      C2181   1.399       .  A
C2180      H2185   1.084       .  S
C2181      C2182   1.412       .  A
C2182      C2183   1.508       .  S
C2183      H2187   1.111       .  S
C2183      H2188   1.108       .  S
C2183      H2189   1.106       .  S
C2186      H2190   1.110       .  S
C2186      H2191   1.110       .  S
C2186      H2192   1.111       .  S
C2193      C2194   1.398       .  A
C2193      C2198   1.394       .  A
C2193      H2200   1.085       .  S
C2194      C2195   1.409       .  A
C2195      C2202   1.497       .  S
C2195      C2196   1.400       .  A
C2196      C2197   1.398       .  A
C2196      H2201   1.085       .  S
C2197      C2198   1.410       .  A
C2198      C2199   1.503       .  S
C2199      H2203   1.109       .  S
C2199      H2204   1.110       .  S
C2199      H2205   1.106       .  S
C2202      H2206   1.109       .  S
C2202      H2207   1.110       .  S
C2202      H2208   1.109       .  S
C2209      C2210   1.409       .  A
C2209      C2214   1.410       .  A
C2209      H2216   1.083       .  S
C2210      C2211   1.420       .  A
C2211      C2218   1.506       .  S
C2211      C2212   1.410       .  A
C2212      C2213   1.405       .  A
C2212      H2217   1.084       .  S
C2213      C2214   1.414       .  A
C2214      C2215   1.506       .  S
C2215      H2219   1.111       .  S
C2215      H2220   1.107       .  S
C2215      H2221   1.109       .  S
C2218      H2223   1.110       .  S
C2218      H2224   1.111       .  S
C2225      C2226   1.408   1_455  A
C2225      C2230   1.403       .  A
C2225      H2232   1.084       .  S
C2226      C2227   1.414       .  A
C2227      C2234   1.511       .  S
C2227      C2228   1.391       .  A
C2228      C2229   1.399   1_655  A
C2228      H2233   1.080       .  S
C2229      C2230   1.409       .  A
C2231      H2235   1.111       .  S
C2231      H2236   1.110       .  S
C2231      H2237   1.110       .  S
C2234      H2238   1.109       .  S
C2234      H2239   1.110       .  S
C2234      H2240   1.111       .  S
C2241      C2242   1.409       .  A
C2241      C2246   1.410       .  A
C2241      H2248   1.084       .  S
C2242      C2418   1.492       .  S
C2242      C2243   1.426       .  A
C2243      C2250   1.514       .  S
C2243      C2244   1.397       .  A
C2244      C2245   1.399       .  A
C2244      H2249   1.084       .  S
C2245      C2246   1.415       .  A
C2246      C2247   1.506       .  S
C2247      H2251   1.111       .  S
C2247      H2252   1.110       .  S
C2247      H2253   1.109       .  S
C2250      H2254   1.105       .  S
C2250      H2255   1.108       .  S
C2250      H2256   1.110       .  S
C2257      C2258   1.407       .  A
C2257      C2262   1.411       .  A
C2257      H2264   1.084       .  S
C2258      C2259   1.420       .  A
C2259      C2266   1.509       .  S
C2259      C2260   1.405       .  A
C2260      C2261   1.405       .  A
C2260      H2265   1.084       .  S
C2261      C2262   1.414       .  A
C2262      C2263   1.501       .  S
C2263      H2267   1.105       .  S
C2263      H2268   1.108       .  S
C2263      H2269   1.110       .  S
C2266      H2270   1.110       .  S
C2266      H2271   1.110       .  S
C2266      H2272   1.111       .  S
C2273      C2274   1.404       .  A
C2273      C2278   1.397       .  A
C2273      H2280   1.085       .  S
C2274      C2373   1.483       .  S
C2274      C2275   1.408       .  A
C2275      C2282   1.502       .  S
C2275      C2276   1.405       .  A
C2276      C2277   1.410       .  A
C2276      H2281   1.084       .  S
C2277      C2278   1.419       .  A
C2278      C2279   1.511       .  S
C2279      H2283   1.111       .  S
C2279      H2284   1.110       .  S
C2279      H2285   1.110       .  S
C2282      H2286   1.110       .  S
C2282      H2287   1.108       .  S
C2282      H2288   1.110       .  S
C2289      C2294   1.402       .  A
C2289      H2296   1.084       .  S
C2290      C2291   1.419       .  A
C2291      C2298   1.506       .  S
C2292      C2293   1.408       .  A
C2292      H2297   1.084       .  S
C2293      C2294   1.414       .  A
C2294      C2295   1.510       .  S
C2295      H2299   1.111       .  S
C2295      H2300   1.109       .  S
C2295      H2301   1.111       .  S
C2298      H2302   1.104       .  S
C2298      H2303   1.111       .  S
C2305      C2306   1.402       .  A
C2305      C2310   1.410       .  A
C2305      H2312   1.084       .  S
C2306      C2307   1.411   1_556  A
C2307      C2314   1.509       .  S
C2307      C2308   1.403       .  A
C2308      C2309   1.404       .  A
C2308      H2313   1.082       .  S
C2309      C2310   1.419   1_554  A
C2310      C2311   1.507       .  S
C2311      H2315   1.111       .  S
C2311      H2316   1.110       .  S
C2311      H2317   1.110       .  S
C2314      H2318   1.111       .  S
C2314      H2319   1.110       .  S
C2314      H2320   1.111       .  S
C2321      C2322   1.407       .  A
C2321      C2326   1.405       .  A
C2321      H2328   1.084       .  S
C2322      C2323   1.416       .  A
C2323      C2330   1.509       .  S
C2323      C2324   1.398       .  A
C2324      C2325   1.401       .  A
C2324      H2329   1.081       .  S
C2325      C2533   1.485       .  S
C2325      C2326   1.405       .  A
C2326      C2327   1.500       .  S
C2327      H2331   1.110       .  S
C2327      H2332   1.109       .  S
C2327      H2333   1.106       .  S
C2330      H2334   1.110       .  S
C2330      H2335   1.110       .  S
C2330      H2336   1.111       .  S
C2337      C2338   1.398       .  A
C2337      C2342   1.395       .  A
C2337      H2344   1.085       .  S
C2338      C2339   1.410       .  A
C2339      C2346   1.505       .  S
C2339      C2340   1.407       .  A
C2340      C2341   1.406       .  A
C2340      H2345   1.080       .  S
C2341      C2514   1.490       .  S
C2341      C2342   1.423       .  A
C2342      C2343   1.513   1_655  S
C2343      H2347   1.111       .  S
C2343      H2348   1.109   1_455  S
C2343      H2349   1.110       .  S
C2346      H2350   1.110       .  S
C2353      C2354   1.405       .  A
C2353      H2360   1.084   1_545  S
C2355      C2356   1.416       .  A
C2356      C2357   1.406       .  A
C2357      C2358   1.417       .  A
C2358      C2359   1.509       .  S
C2359      H2364   1.109       .  S
C2359      H2365   1.110       .  S
C2362      H2367   1.110       .  S
C2362      H2368   1.110       .  S
C2369      C2370   1.399       .  A
C2369      C2374   1.395       .  A
C2369      H2376   1.085       .  S
C2370      C2371   1.411       .  A
C2371      C2378   1.503       .  S
C2371      C2372   1.408       .  A
C2372      C2373   1.408       .  A
C2372      H2377   1.082       .  S
C2373      C2374   1.415       .  A
C2374      C2375   1.507       .  S
C2375      H2379   1.111       .  S
C2375      H2380   1.106       .  S
C2375      H2381   1.109       .  S
C2378      H2382   1.110       .  S
C2378      H2383   1.109       .  S
C2378      H2384   1.109       .  S
C2385      C2386   1.403       .  A
C2385      C2390   1.401       .  A
C2385      H2392   1.084   1_556  S
C2386      C2387   1.408       .  A
C2387      C2394   1.509       .  S
C2387      C2388   1.395       .  A
C2388      C2389   1.402       .  A
C2388      H2393   1.081       .  S
C2389      C2390   1.411       .  A
C2391      H2395   1.111   1_556  S
C2391      H2396   1.110       .  S
C2391      H2397   1.109       .  S
C2394      H2398   1.108   1_556  S
C2394      H2399   1.111       .  S
C2394      H2400   1.105       .  S
C2401      C2402   1.406       .  A
C2401      C2406   1.403       .  A
C2401      H2408   1.084       .  S
C2402      C2403   1.418       .  A
C2403      C2410   1.506       .  S
C2403      C2404   1.412       .  A
C2404      C2405   1.404       .  A
C2404      H2409   1.084       .  S
C2405      C2406   1.411       .  A
C2406      C2407   1.509       .  S
C2407      H2411   1.111       .  S
C2407      H2412   1.110       .  S
C2407      H2413   1.111       .  S
C2410      H2414   1.109       .  S
C2410      H2415   1.109       .  S
C2410      H2416   1.111       .  S
C2417      C2418   1.403       .  A
C2417      C2422   1.397       .  A
C2417      H2424   1.084       .  S
C2418      C2419   1.412       .  A
C2419      C2426   1.501       .  S
C2420      C2421   1.402   1_545  A
C2420      H2425   1.084       .  S
C2423      H2428   1.111       .  S
C2423      H2429   1.110       .  S
C2426      H2430   1.104       .  S
C2426      H2431   1.110       .  S
C2426      H2432   1.109       .  S
C2433      C2434   1.405       .  A
C2433      C2438   1.404       .  A
C2433      H2440   1.084       .  S
C2434      C2435   1.419       .  A
C2435      C2442   1.503       .  S
C2435      C2436   1.408       .  A
C2436      C2437   1.398       .  A
C2436      H2441   1.084       .  S
C2437      C2438   1.417       .  A
C2438      C2439   1.508       .  S
C2439      H2443   1.110       .  S
C2439      H2444   1.106       .  S
C2439      H2445   1.111       .  S
C2442      H2446   1.110       .  S
C2442      H2447   1.110       .  S
C2442      H2448   1.101       .  S
C2449      C2450   1.405       .  A
C2449      C2454   1.398       .  A
C2449      H2456   1.084       .  S
C2450      C2485   1.484       .  S
C2450      C2451   1.410       .  A
C2451      C2458   1.501       .  S
C2451      C2452   1.400       .  A
C2452      C2453   1.402       .  A
C2452      H2457   1.084       .  S
C2453      C2454   1.413       .  A
C2454      C2455   1.509       .  S
C2455      H2459   1.111       .  S
C2455      H2460   1.108       .  S
C2455      H2461   1.108       .  S
C2458      H2462   1.109       .  S
C2458      H2463   1.111       .  S
C2458      H2464   1.104       .  S
C2465      C2466   1.401       .  A
C2465      C2470   1.401       .  A
C2465      H2472   1.085       .  S
C2466      C2467   1.410       .  A
C2467      C2474   1.501       .  S
C2467      C2468   1.389       .  A
C2468      C2469   1.395       .  A
C2468      H2473   1.085       .  S
C2469      C2470   1.411       .  A
C2470      C2471   1.506   1_554  S
C2471      H2475   1.111       .  S
C2471      H2476   1.110       .  S
C2471      H2477   1.110       .  S
C2474      H2478   1.110       .  S
C2474      H2479   1.106       .  S
C2474      H2480   1.108       .  S
C2481      C2482   1.407       .  A
C2481      C2486   1.402       .  A
C2481      H2488   1.084       .  S
C2482      C2483   1.416       .  A
C2483      C2490   1.510       .  S
C2483      C2484   1.397       .  A
C2484      C2485   1.407       .  A
C2484      H2489   1.084       .  S
C2485      C2486   1.409       .  A
C2486      C2487   1.502       .  S
C2487      H2491   1.106       .  S
C2487      H2492   1.109       .  S
C2490      H2494   1.109       .  S
C2490      H2495   1.111       .  S
C2490      H2496   1.111       .  S
C2497      C2498   1.405       .  A
C2497      C2502   1.411       .  A
C2497      H2504   1.084       .  S
C2498      C2499   1.413       .  A
C2499      C2506   1.505       .  S
C2499      C2500   1.404       .  A
C2500      C2501   1.401       .  A
C2500      H2505   1.084       .  S
C2501      C2502   1.417       .  A
C2502      C2503   1.507       .  S
C2503      H2507   1.110       .  S
C2503      H2508   1.111       .  S
C2503      H2509   1.111       .  S
C2506      H2510   1.110       .  S
C2506      H2511   1.105       .  S
C2506      H2512   1.111       .  S
C2513      C2514   1.406       .  A
C2513      H2520   1.078       .  S
C2514      C2515   1.419   1_655  A
C2515      C2522   1.510   1_455  S
C2516      C2517   1.399       .  A
C2516      H2521   1.085       .  S
C2517      C2518   1.410       .  A
C2518      C2519   1.505       .  S
C2519      H2523   1.110       .  S
C2519      H2524   1.110       .  S
C2519      H2525   1.110       .  S
C2522      H2526   1.111   1_655  S
C2522      H2527   1.109       .  S
C2529      C2530   1.400       .  A
C2529      C2534   1.397       .  A
C2529      H2536   1.084       .  S
C2530      C2531   1.415       .  A
C2531      C2538   1.507       .  S
C2531      C2532   1.407       .  A
C2532      C2533   1.403       .  A
C2532      H2537   1.082       .  S
C2533      C2534   1.421       .  A
C2534      C2535   1.511       .  S
C2535      H2539   1.111       .  S
C2535      H2540   1.109       .  S
C2535      H2541   1.106       .  S
C2538      H2542   1.108       .  S
C2538      H2543   1.110       .  S
C2538      H2544   1.111       .  S
C2545      C2546   1.407   1_554  A
C2545      C2550   1.406   1_655  A
C2545      H2552   1.084       .  S
C2546      C2547   1.416       .  A
C2547      C2554   1.509       .  S
C2547      C2548   1.403   1_656  A
C2548      C2549   1.401       .  A
C2548      H2553   1.085       .  S
C2549      C2550   1.408       .  A
C2551      H2555   1.111       .  S
C2551      H2556   1.111       .  S
C2551      H2557   1.110       .  S
C2554      H2558   1.109       .  S
C2554      H2559   1.111       .  S
C2554      H2560   1.111       .  S
